
 OpenBabel02052520053D

 54 57  0  0  0  0  0  0  0  0999 V2000
    0.0480   -0.0001    0.0750 Fe  0  2  0  0  0  0  0  0  0  0  0  0
    1.4546    1.6499   -0.0043 N   0  0  2  0  0  0  0  0  0  0  0  0
   -1.4729    1.6335    0.0979 N   0  0  1  0  0  0  0  0  0  0  0  0
   -1.4733   -1.6334    0.0983 N   0  0  1  0  0  0  0  0  0  0  0  0
    1.4541   -1.6501   -0.0045 N   0  0  1  0  0  0  0  0  0  0  0  0
    0.6709    2.6781   -0.7638 C   0  0  0  0  0  0  0  0  0  0  0  0
    1.2299    3.6229   -0.7743 H   0  0  0  0  0  0  0  0  0  0  0  0
    0.5854    2.3169   -1.7873 H   0  0  0  0  0  0  0  0  0  0  0  0
   -0.7033    2.9105   -0.1548 C   0  0  0  0  0  0  0  0  0  0  0  0
   -1.2868    3.5609   -0.8157 H   0  0  0  0  0  0  0  0  0  0  0  0
   -0.6126    3.4299    0.7995 H   0  0  0  0  0  0  0  0  0  0  0  0
   -2.4532    1.3405   -0.9965 C   0  0  0  0  0  0  0  0  0  0  0  0
   -3.2051    2.1416   -0.9893 H   0  0  0  0  0  0  0  0  0  0  0  0
   -1.9170    1.4328   -1.9445 H   0  0  0  0  0  0  0  0  0  0  0  0
   -3.2088    0.0001   -0.9020 C   0  0  0  0  0  0  0  0  0  0  0  0
   -3.9049    0.0001   -1.7497 H   0  0  0  0  0  0  0  0  0  0  0  0
   -3.8546   -0.0004   -0.0204 H   0  0  0  0  0  0  0  0  0  0  0  0
   -2.4516   -1.3394   -0.9977 C   0  0  0  0  0  0  0  0  0  0  0  0
   -1.9125   -1.4285   -1.9441 H   0  0  0  0  0  0  0  0  0  0  0  0
   -3.2027   -2.1410   -0.9932 H   0  0  0  0  0  0  0  0  0  0  0  0
   -0.7038   -2.9104   -0.1541 C   0  0  0  0  0  0  0  0  0  0  0  0
   -0.6130   -3.4294    0.8004 H   0  0  0  0  0  0  0  0  0  0  0  0
   -1.2877   -3.5609   -0.8146 H   0  0  0  0  0  0  0  0  0  0  0  0
    0.6701   -2.6785   -0.7637 C   0  0  0  0  0  0  0  0  0  0  0  0
    0.5841   -2.3174   -1.7872 H   0  0  0  0  0  0  0  0  0  0  0  0
    1.2291   -3.6232   -0.7738 H   0  0  0  0  0  0  0  0  0  0  0  0
    2.6802   -1.2845   -0.7814 C   0  0  0  0  0  0  0  0  0  0  0  0
    2.3813   -1.1912   -1.8263 H   0  0  0  0  0  0  0  0  0  0  0  0
    3.3731   -2.1325   -0.6999 H   0  0  0  0  0  0  0  0  0  0  0  0
    3.3864   -0.0004   -0.3396 C   0  0  0  0  0  0  0  0  0  0  0  0
    3.6096   -0.0006    0.7310 H   0  0  0  0  0  0  0  0  0  0  0  0
    4.3627   -0.0006   -0.8372 H   0  0  0  0  0  0  0  0  0  0  0  0
    2.6808    1.2840   -0.7810 C   0  0  0  0  0  0  0  0  0  0  0  0
    2.3819    1.1910   -1.8259 H   0  0  0  0  0  0  0  0  0  0  0  0
    3.3740    2.1317   -0.6994 H   0  0  0  0  0  0  0  0  0  0  0  0
    1.8025    2.1037    1.3700 C   0  0  0  0  0  0  0  0  0  0  0  0
    2.4250    3.0040    1.3066 H   0  0  0  0  0  0  0  0  0  0  0  0
    0.9022    2.3153    1.9404 H   0  0  0  0  0  0  0  0  0  0  0  0
    2.3458    1.3175    1.8895 H   0  0  0  0  0  0  0  0  0  0  0  0
   -2.1572    1.7698    1.4149 C   0  0  0  0  0  0  0  0  0  0  0  0
   -2.7599    2.6860    1.4166 H   0  0  0  0  0  0  0  0  0  0  0  0
   -1.4127    1.8072    2.2080 H   0  0  0  0  0  0  0  0  0  0  0  0
   -2.8119    0.9259    1.6009 H   0  0  0  0  0  0  0  0  0  0  0  0
   -2.1587   -1.7699    1.4145 C   0  0  0  0  0  0  0  0  0  0  0  0
   -2.8144   -0.9266    1.5999 H   0  0  0  0  0  0  0  0  0  0  0  0
   -1.4149   -1.8066    2.2084 H   0  0  0  0  0  0  0  0  0  0  0  0
   -2.7607   -2.6865    1.4159 H   0  0  0  0  0  0  0  0  0  0  0  0
    1.8019   -2.1033    1.3700 C   0  0  0  0  0  0  0  0  0  0  0  0
    0.9016   -2.3151    1.9403 H   0  0  0  0  0  0  0  0  0  0  0  0
    2.3450   -1.3168    1.8893 H   0  0  0  0  0  0  0  0  0  0  0  0
    2.4247   -3.0034    1.3068 H   0  0  0  0  0  0  0  0  0  0  0  0
    0.1630   -0.0024   -1.6966 O   0  0  0  0  0  0  0  0  0  0  0  0
   -0.6338    0.0152   -2.2481 H   0  0  0  0  0  0  0  0  0  0  0  0
    0.0581    0.0003    1.7977 F   0  0  0  0  0  0  0  0  0  0  0  0
  1 54  1  0  0  0  0
  2 36  1  1  0  0  0
  2  1  9  0  0  0  0
  3 40  1  1  0  0  0
  3  1  9  0  0  0  0
  4 44  1  1  0  0  0
  4  1  9  0  0  0  0
  5 48  1  1  0  0  0
  5  1  9  0  0  0  0
  6  9  1  0  0  0  0
  6  2  1  0  0  0  0
  7  6  1  0  0  0  0
  8  6  1  0  0  0  0
  9  3  1  0  0  0  0
  9 11  1  0  0  0  0
 10  9  1  0  0  0  0
 12 13  1  0  0  0  0
 12 15  1  0  0  0  0
 12  3  1  0  0  0  0
 14 12  1  0  0  0  0
 15 17  1  0  0  0  0
 16 15  1  0  0  0  0
 18 20  1  0  0  0  0
 18 15  1  0  0  0  0
 18  4  1  0  0  0  0
 19 18  1  0  0  0  0
 21  4  1  0  0  0  0
 21 22  1  0  0  0  0
 23 21  1  0  0  0  0
 24 21  1  0  0  0  0
 24  5  1  0  0  0  0
 25 24  1  0  0  0  0
 26 24  1  0  0  0  0
 27 29  1  0  0  0  0
 27 30  1  0  0  0  0
 27  5  1  0  0  0  0
 28 27  1  0  0  0  0
 30 31  1  0  0  0  0
 32 30  1  0  0  0  0
 33 35  1  0  0  0  0
 33 30  1  0  0  0  0
 33  2  1  0  0  0  0
 34 33  1  0  0  0  0
 36 39  1  0  0  0  0
 36 38  1  0  0  0  0
 37 36  1  0  0  0  0
 40 41  1  0  0  0  0
 40 43  1  0  0  0  0
 40 42  1  0  0  0  0
 44 47  1  0  0  0  0
 44 45  1  0  0  0  0
 44 46  1  0  0  0  0
 48 50  1  0  0  0  0
 48 49  1  0  0  0  0
 51 48  1  0  0  0  0
 52  1  1  0  0  0  0
 53 52  1  0  0  0  0
M  CHG  1   1   2
M  END
$$$$
