
 OpenBabel02052520053D

 60 63  0  0  0  0  0  0  0  0999 V2000
   -0.7011    0.1573    0.0907 Fe  0  3  0  0  0  0  0  0  0  0  0  0
    0.0360    1.4664    1.7532 N   0  0  2  0  0  0  0  0  0  0  0  0
   -0.7918   -1.3993    1.6880 N   0  0  1  0  0  0  0  0  0  0  0  0
   -1.5917   -1.1970   -1.4577 N   0  0  1  0  0  0  0  0  0  0  0  0
   -0.7653    1.6852   -1.5221 N   0  0  1  0  0  0  0  0  0  0  0  0
   -0.6757    0.8380    2.9044 C   0  0  0  0  0  0  0  0  0  0  0  0
   -0.3338    1.2801    3.8518 H   0  0  0  0  0  0  0  0  0  0  0  0
   -1.7375    1.0484    2.7862 H   0  0  0  0  0  0  0  0  0  0  0  0
   -0.4525   -0.6732    2.9594 C   0  0  0  0  0  0  0  0  0  0  0  0
   -1.0371   -1.0891    3.7899 H   0  0  0  0  0  0  0  0  0  0  0  0
    0.5959   -0.8794    3.1798 H   0  0  0  0  0  0  0  0  0  0  0  0
   -2.2088   -1.8871    1.7095 C   0  0  0  0  0  0  0  0  0  0  0  0
   -2.3034   -2.6206    2.5241 H   0  0  0  0  0  0  0  0  0  0  0  0
   -2.8324   -1.0244    1.9409 H   0  0  0  0  0  0  0  0  0  0  0  0
   -2.7181   -2.5484    0.4144 C   0  0  0  0  0  0  0  0  0  0  0  0
   -3.7299   -2.8998    0.6517 H   0  0  0  0  0  0  0  0  0  0  0  0
   -2.1504   -3.4593    0.2016 H   0  0  0  0  0  0  0  0  0  0  0  0
   -2.8715   -1.6973   -0.8612 C   0  0  0  0  0  0  0  0  0  0  0  0
   -3.4854   -0.8251   -0.6419 H   0  0  0  0  0  0  0  0  0  0  0  0
   -3.3826   -2.3103   -1.6185 H   0  0  0  0  0  0  0  0  0  0  0  0
   -1.8439   -0.2932   -2.6319 C   0  0  0  0  0  0  0  0  0  0  0  0
   -1.0232   -0.4470   -3.3340 H   0  0  0  0  0  0  0  0  0  0  0  0
   -2.7633   -0.6026   -3.1457 H   0  0  0  0  0  0  0  0  0  0  0  0
   -1.9492    1.1935   -2.2897 C   0  0  0  0  0  0  0  0  0  0  0  0
   -2.8304    1.3681   -1.6745 H   0  0  0  0  0  0  0  0  0  0  0  0
   -2.0567    1.7620   -3.2249 H   0  0  0  0  0  0  0  0  0  0  0  0
   -1.0262    3.0470   -0.9712 C   0  0  0  0  0  0  0  0  0  0  0  0
   -2.0657    3.0790   -0.6346 H   0  0  0  0  0  0  0  0  0  0  0  0
   -0.9396    3.7736   -1.7916 H   0  0  0  0  0  0  0  0  0  0  0  0
   -0.1064    3.4791    0.1822 C   0  0  0  0  0  0  0  0  0  0  0  0
    0.9446    3.3263   -0.0815 H   0  0  0  0  0  0  0  0  0  0  0  0
   -0.2258    4.5641    0.2837 H   0  0  0  0  0  0  0  0  0  0  0  0
   -0.4130    2.8753    1.5623 C   0  0  0  0  0  0  0  0  0  0  0  0
   -1.4910    2.9104    1.7408 H   0  0  0  0  0  0  0  0  0  0  0  0
    0.0545    3.4973    2.3389 H   0  0  0  0  0  0  0  0  0  0  0  0
    1.5048    1.4328    1.9518 C   0  0  0  0  0  0  0  0  0  0  0  0
    1.7797    1.9949    2.8550 H   0  0  0  0  0  0  0  0  0  0  0  0
    1.8541    0.4077    2.0319 H   0  0  0  0  0  0  0  0  0  0  0  0
    2.0052    1.8628    1.0871 H   0  0  0  0  0  0  0  0  0  0  0  0
    0.1643   -2.5266    1.5479 C   0  0  0  0  0  0  0  0  0  0  0  0
    0.1141   -3.1826    2.4275 H   0  0  0  0  0  0  0  0  0  0  0  0
    1.1719   -2.1299    1.4345 H   0  0  0  0  0  0  0  0  0  0  0  0
   -0.0674   -3.1157    0.6651 H   0  0  0  0  0  0  0  0  0  0  0  0
   -0.7703   -2.3341   -1.9521 C   0  0  0  0  0  0  0  0  0  0  0  0
   -0.5765   -3.0428   -1.1517 H   0  0  0  0  0  0  0  0  0  0  0  0
    0.1848   -1.9616   -2.3182 H   0  0  0  0  0  0  0  0  0  0  0  0
   -1.3036   -2.8604   -2.7557 H   0  0  0  0  0  0  0  0  0  0  0  0
    0.4512    1.7127   -2.3710 C   0  0  0  0  0  0  0  0  0  0  0  0
    0.6827    0.7169   -2.7408 H   0  0  0  0  0  0  0  0  0  0  0  0
    1.3033    2.0388   -1.7743 H   0  0  0  0  0  0  0  0  0  0  0  0
    0.3134    2.4032   -3.2142 H   0  0  0  0  0  0  0  0  0  0  0  0
    1.1441   -0.3282   -0.2997 O   0  0  0  0  0  0  0  0  0  0  0  0
   -2.4283    0.7204    0.5585 O   0  0  0  0  0  0  0  0  0  0  0  0
    2.1489   -0.6945   -1.0305 C   0  0  0  0  0  0  0  0  0  0  0  0
    2.1471   -1.0237   -2.2036 O   0  0  0  0  0  1  0  0  0  0  0  0
    3.4859   -0.6303   -0.2483 C   0  0  0  0  0  0  0  0  0  0  0  0
    4.4759   -1.2468   -0.8811 F   0  0  0  0  0  0  0  0  0  0  0  0
    3.8267    0.6690   -0.0663 F   0  0  0  0  0  0  0  0  0  0  0  0
    3.3521   -1.1873    0.9848 F   0  0  0  0  0  0  0  0  0  0  0  0
   -2.7629    1.6171    0.6892 H   0  0  0  0  0  0  0  0  0  0  0  0
  1 53  1  0  0  0  0
  2 36  1  1  0  0  0
  2  6  1  0  0  0  0
  2  1  9  0  0  0  0
  3 40  1  6  0  0  0
  3 12  1  0  0  0  0
  3  9  1  0  0  0  0
  3  1  9  0  0  0  0
  4 44  1  6  0  0  0
  4 18  1  0  0  0  0
  4  1  9  0  0  0  0
  5 48  1  6  0  0  0
  5 27  1  0  0  0  0
  5  1  9  0  0  0  0
  6  9  1  0  0  0  0
  6  7  1  0  0  0  0
  8  6  1  0  0  0  0
  9 11  1  0  0  0  0
  9 10  1  0  0  0  0
 12 14  1  0  0  0  0
 12 13  1  0  0  0  0
 15 16  1  0  0  0  0
 15 12  1  0  0  0  0
 17 15  1  0  0  0  0
 18 19  1  0  0  0  0
 18 15  1  0  0  0  0
 20 18  1  0  0  0  0
 21 24  1  0  0  0  0
 21  4  1  0  0  0  0
 22 21  1  0  0  0  0
 23 21  1  0  0  0  0
 24 25  1  0  0  0  0
 24  5  1  0  0  0  0
 26 24  1  0  0  0  0
 27 28  1  0  0  0  0
 27 30  1  0  0  0  0
 29 27  1  0  0  0  0
 30 32  1  0  0  0  0
 30 33  1  0  0  0  0
 31 30  1  0  0  0  0
 33 34  1  0  0  0  0
 33  2  1  0  0  0  0
 33 35  1  0  0  0  0
 36 38  1  0  0  0  0
 36 37  1  0  0  0  0
 39 36  1  0  0  0  0
 40 41  1  0  0  0  0
 42 40  1  0  0  0  0
 43 40  1  0  0  0  0
 44 45  1  0  0  0  0
 46 44  1  0  0  0  0
 47 44  1  0  0  0  0
 48 50  1  0  0  0  0
 49 48  1  0  0  0  0
 51 48  1  0  0  0  0
 52  1  9  0  0  0  0
 53 60  1  0  0  0  0
 54 52  2  0  0  0  0
 54 56  1  0  0  0  0
 55 54  1  0  0  0  0
 56 58  1  0  0  0  0
 56 59  1  0  0  0  0
 57 56  1  0  0  0  0
M  RAD  1  55   2
M  CHG  1   1   1
M  END
$$$$
