
 OpenBabel02052520053D

 54 57  0  0  0  0  0  0  0  0999 V2000
    0.0232   -0.0002   -0.1594 Fe  0  2  0  0  0  0  0  0  0  0  0  0
    1.4485    1.6559   -0.3500 N   0  0  2  0  0  0  0  0  0  0  0  0
   -1.5024    1.5908   -0.1872 N   0  0  1  0  0  0  0  0  0  0  0  0
   -1.4971   -1.5945   -0.1870 N   0  0  1  0  0  0  0  0  0  0  0  0
    1.4536   -1.6516   -0.3514 N   0  0  1  0  0  0  0  0  0  0  0  0
    0.6035    2.6653   -1.0680 C   0  0  0  0  0  0  0  0  0  0  0  0
    1.1426    3.6202   -1.1121 H   0  0  0  0  0  0  0  0  0  0  0  0
    0.4626    2.3089   -2.0865 H   0  0  0  0  0  0  0  0  0  0  0  0
   -0.7244    2.8707   -0.3706 C   0  0  0  0  0  0  0  0  0  0  0  0
   -1.3337    3.5852   -0.9364 H   0  0  0  0  0  0  0  0  0  0  0  0
   -0.5712    3.2976    0.6205 H   0  0  0  0  0  0  0  0  0  0  0  0
   -2.3962    1.3300   -1.3687 C   0  0  0  0  0  0  0  0  0  0  0  0
   -3.1417    2.1351   -1.3963 H   0  0  0  0  0  0  0  0  0  0  0  0
   -1.7989    1.4504   -2.2747 H   0  0  0  0  0  0  0  0  0  0  0  0
   -3.1603   -0.0049   -1.3515 C   0  0  0  0  0  0  0  0  0  0  0  0
   -3.7799   -0.0059   -2.2564 H   0  0  0  0  0  0  0  0  0  0  0  0
   -3.8769   -0.0077   -0.5266 H   0  0  0  0  0  0  0  0  0  0  0  0
   -2.3866   -1.3342   -1.3720 C   0  0  0  0  0  0  0  0  0  0  0  0
   -1.7819   -1.4426   -2.2738 H   0  0  0  0  0  0  0  0  0  0  0  0
   -3.1267   -2.1440   -1.4064 H   0  0  0  0  0  0  0  0  0  0  0  0
   -0.7155   -2.8722   -0.3698 C   0  0  0  0  0  0  0  0  0  0  0  0
   -0.5607   -3.2978    0.6215 H   0  0  0  0  0  0  0  0  0  0  0  0
   -1.3232   -3.5886   -0.9348 H   0  0  0  0  0  0  0  0  0  0  0  0
    0.6112   -2.6641   -1.0687 C   0  0  0  0  0  0  0  0  0  0  0  0
    0.4682   -2.3083   -2.0869 H   0  0  0  0  0  0  0  0  0  0  0  0
    1.1533   -3.6173   -1.1115 H   0  0  0  0  0  0  0  0  0  0  0  0
    2.6037   -1.2690   -1.2368 C   0  0  0  0  0  0  0  0  0  0  0  0
    2.2156   -1.1569   -2.2487 H   0  0  0  0  0  0  0  0  0  0  0  0
    3.2976   -2.1190   -1.2349 H   0  0  0  0  0  0  0  0  0  0  0  0
    3.3417    0.0050   -0.8333 C   0  0  0  0  0  0  0  0  0  0  0  0
    3.6190    0.0049    0.2248 H   0  0  0  0  0  0  0  0  0  0  0  0
    4.2892    0.0067   -1.3836 H   0  0  0  0  0  0  0  0  0  0  0  0
    2.6002    1.2774   -1.2353 C   0  0  0  0  0  0  0  0  0  0  0  0
    2.2125    1.1648   -2.2474 H   0  0  0  0  0  0  0  0  0  0  0  0
    3.2917    2.1292   -1.2325 H   0  0  0  0  0  0  0  0  0  0  0  0
    1.9820    2.2283    0.9228 C   0  0  0  0  0  0  0  0  0  0  0  0
    2.6189    3.0878    0.6837 H   0  0  0  0  0  0  0  0  0  0  0  0
    1.1733    2.5465    1.5746 H   0  0  0  0  0  0  0  0  0  0  0  0
    2.5662    1.4779    1.4503 H   0  0  0  0  0  0  0  0  0  0  0  0
   -2.3624    1.7920    1.0226 C   0  0  0  0  0  0  0  0  0  0  0  0
   -3.0345    2.6388    0.8384 H   0  0  0  0  0  0  0  0  0  0  0  0
   -1.7421    2.0020    1.8895 H   0  0  0  0  0  0  0  0  0  0  0  0
   -2.9583    0.9105    1.2309 H   0  0  0  0  0  0  0  0  0  0  0  0
   -2.3591   -1.7993    1.0204 C   0  0  0  0  0  0  0  0  0  0  0  0
   -2.9576   -0.9196    1.2289 H   0  0  0  0  0  0  0  0  0  0  0  0
   -1.7403   -2.0091    1.8885 H   0  0  0  0  0  0  0  0  0  0  0  0
   -3.0290   -2.6473    0.8336 H   0  0  0  0  0  0  0  0  0  0  0  0
    1.9894   -2.2217    0.9217 C   0  0  0  0  0  0  0  0  0  0  0  0
    1.1821   -2.5434    1.5732 H   0  0  0  0  0  0  0  0  0  0  0  0
    2.5707   -1.4692    1.4492 H   0  0  0  0  0  0  0  0  0  0  0  0
    2.6296   -3.0787    0.6822 H   0  0  0  0  0  0  0  0  0  0  0  0
    0.1389   -0.0057   -1.9338 O   0  0  0  0  0  0  0  0  0  0  0  0
   -0.6634    0.0393   -2.4732 H   0  0  0  0  0  0  0  0  0  0  0  0
    0.1066   -0.0007    2.2257 Br  0  0  0  0  0  0  0  0  0  0  0  0
  1 54  1  0  0  0  0
  2 36  1  1  0  0  0
  2  1  9  0  0  0  0
  3 40  1  1  0  0  0
  3  1  9  0  0  0  0
  4 44  1  1  0  0  0
  4  1  9  0  0  0  0
  5 48  1  1  0  0  0
  5  1  9  0  0  0  0
  6  9  1  0  0  0  0
  6  2  1  0  0  0  0
  7  6  1  0  0  0  0
  8  6  1  0  0  0  0
  9  3  1  0  0  0  0
  9 11  1  0  0  0  0
 10  9  1  0  0  0  0
 12 15  1  0  0  0  0
 12  3  1  0  0  0  0
 13 12  1  0  0  0  0
 14 12  1  0  0  0  0
 15 17  1  0  0  0  0
 16 15  1  0  0  0  0
 18 15  1  0  0  0  0
 18  4  1  0  0  0  0
 19 18  1  0  0  0  0
 20 18  1  0  0  0  0
 21  4  1  0  0  0  0
 21 22  1  0  0  0  0
 23 21  1  0  0  0  0
 24 21  1  0  0  0  0
 24  5  1  0  0  0  0
 25 24  1  0  0  0  0
 26 24  1  0  0  0  0
 27 29  1  0  0  0  0
 27 30  1  0  0  0  0
 27  5  1  0  0  0  0
 28 27  1  0  0  0  0
 30 31  1  0  0  0  0
 32 30  1  0  0  0  0
 33 35  1  0  0  0  0
 33 30  1  0  0  0  0
 33  2  1  0  0  0  0
 34 33  1  0  0  0  0
 36 39  1  0  0  0  0
 36 38  1  0  0  0  0
 37 36  1  0  0  0  0
 40 43  1  0  0  0  0
 40 42  1  0  0  0  0
 41 40  1  0  0  0  0
 44 45  1  0  0  0  0
 44 46  1  0  0  0  0
 47 44  1  0  0  0  0
 48 50  1  0  0  0  0
 48 49  1  0  0  0  0
 51 48  1  0  0  0  0
 52  1  1  0  0  0  0
 53 52  1  0  0  0  0
M  CHG  1   1   2
M  END
$$$$
