
 OpenBabel02052520053D

 56 59  0  0  0  0  0  0  0  0999 V2000
    0.1199    0.0000   -0.4949 Fe  0  2  0  0  0  0  0  0  0  0  0  0
   -1.2919    1.6572   -0.7187 N   0  0  2  0  0  0  0  0  0  0  0  0
    1.5939    1.6224   -0.1510 N   0  0  1  0  0  0  0  0  0  0  0  0
    1.5933   -1.6228   -0.1513 N   0  0  1  0  0  0  0  0  0  0  0  0
   -1.2923   -1.6568   -0.7190 N   0  0  1  0  0  0  0  0  0  0  0  0
   -0.6908    2.6925    0.1882 C   0  0  0  0  0  0  0  0  0  0  0  0
   -1.2202    3.6446    0.0532 H   0  0  0  0  0  0  0  0  0  0  0  0
   -0.8482    2.3664    1.2136 H   0  0  0  0  0  0  0  0  0  0  0  0
    0.7900    2.9007   -0.0936 C   0  0  0  0  0  0  0  0  0  0  0  0
    1.2129    3.5585    0.6736 H   0  0  0  0  0  0  0  0  0  0  0  0
    0.9201    3.4077   -1.0502 H   0  0  0  0  0  0  0  0  0  0  0  0
    2.2791    1.3322    1.1540 C   0  0  0  0  0  0  0  0  0  0  0  0
    3.0039    2.1402    1.3235 H   0  0  0  0  0  0  0  0  0  0  0  0
    1.5253    1.3958    1.9372 H   0  0  0  0  0  0  0  0  0  0  0  0
    3.0427   -0.0006    1.2380 C   0  0  0  0  0  0  0  0  0  0  0  0
    3.5119   -0.0008    2.2294 H   0  0  0  0  0  0  0  0  0  0  0  0
    3.8830   -0.0007    0.5387 H   0  0  0  0  0  0  0  0  0  0  0  0
    2.2786   -1.3331    1.1537 C   0  0  0  0  0  0  0  0  0  0  0  0
    1.5248   -1.3967    1.9368 H   0  0  0  0  0  0  0  0  0  0  0  0
    3.0031   -2.1414    1.3230 H   0  0  0  0  0  0  0  0  0  0  0  0
    0.7892   -2.9010   -0.0942 C   0  0  0  0  0  0  0  0  0  0  0  0
    0.9192   -3.4079   -1.0508 H   0  0  0  0  0  0  0  0  0  0  0  0
    1.2119   -3.5590    0.6729 H   0  0  0  0  0  0  0  0  0  0  0  0
   -0.6916   -2.6924    0.1877 C   0  0  0  0  0  0  0  0  0  0  0  0
   -0.8488   -2.3664    1.2131 H   0  0  0  0  0  0  0  0  0  0  0  0
   -1.2213   -3.6443    0.0525 H   0  0  0  0  0  0  0  0  0  0  0  0
   -2.6672   -1.2939   -0.2389 C   0  0  0  0  0  0  0  0  0  0  0  0
   -2.6284   -1.2215    0.8487 H   0  0  0  0  0  0  0  0  0  0  0  0
   -3.3298   -2.1329   -0.4879 H   0  0  0  0  0  0  0  0  0  0  0  0
   -3.2482    0.0005   -0.8160 C   0  0  0  0  0  0  0  0  0  0  0  0
   -3.2278    0.0006   -1.9104 H   0  0  0  0  0  0  0  0  0  0  0  0
   -4.3127    0.0006   -0.5546 H   0  0  0  0  0  0  0  0  0  0  0  0
   -2.6668    1.2946   -0.2387 C   0  0  0  0  0  0  0  0  0  0  0  0
   -2.6281    1.2221    0.8489 H   0  0  0  0  0  0  0  0  0  0  0  0
   -3.3293    2.1338   -0.4875 H   0  0  0  0  0  0  0  0  0  0  0  0
   -1.3606    2.1659   -2.1168 C   0  0  0  0  0  0  0  0  0  0  0  0
   -1.9332    3.1004   -2.1426 H   0  0  0  0  0  0  0  0  0  0  0  0
   -0.3606    2.3388   -2.5084 H   0  0  0  0  0  0  0  0  0  0  0  0
   -1.8665    1.4380   -2.7520 H   0  0  0  0  0  0  0  0  0  0  0  0
    2.5895    1.7757   -1.2487 C   0  0  0  0  0  0  0  0  0  0  0  0
    3.1815    2.6821   -1.0729 H   0  0  0  0  0  0  0  0  0  0  0  0
    2.0707    1.8413   -2.2027 H   0  0  0  0  0  0  0  0  0  0  0  0
    3.2611    0.9256   -1.2847 H   0  0  0  0  0  0  0  0  0  0  0  0
    2.5888   -1.7759   -1.2492 C   0  0  0  0  0  0  0  0  0  0  0  0
    3.2593   -0.9249   -1.2862 H   0  0  0  0  0  0  0  0  0  0  0  0
    2.0697   -1.8427   -2.2030 H   0  0  0  0  0  0  0  0  0  0  0  0
    3.1819   -2.6814   -1.0730 H   0  0  0  0  0  0  0  0  0  0  0  0
   -1.3611   -2.1652   -2.1173 C   0  0  0  0  0  0  0  0  0  0  0  0
   -0.3611   -2.3378   -2.5089 H   0  0  0  0  0  0  0  0  0  0  0  0
   -1.8671   -1.4371   -2.7523 H   0  0  0  0  0  0  0  0  0  0  0  0
   -1.9337   -3.0997   -2.1432 H   0  0  0  0  0  0  0  0  0  0  0  0
    0.5567    0.0002   -2.1947 O   0  0  0  0  0  0  0  0  0  0  0  0
   -0.1596    0.0003   -2.8523 H   0  0  0  0  0  0  0  0  0  0  0  0
   -0.3269   -0.0000    1.2841 N   0  0  0  0  0  0  0  0  0  0  0  0
   -0.7482   -0.0001    2.4140 C   0  0  0  0  0  0  0  0  0  0  0  0
   -1.2943   -0.0002    3.8963 S   0  0  0  0  0  0  0  0  0  0  0  0
  1 54  1  0  0  0  0
  2 36  1  6  0  0  0
  2 33  1  0  0  0  0
  2  6  1  0  0  0  0
  2  1  9  0  0  0  0
  3 40  1  6  0  0  0
  3  9  1  0  0  0  0
  3 12  1  0  0  0  0
  3  1  9  0  0  0  0
  4 44  1  6  0  0  0
  4 21  1  0  0  0  0
  4 18  1  0  0  0  0
  4  1  9  0  0  0  0
  5 48  1  6  0  0  0
  5 27  1  0  0  0  0
  5 24  1  0  0  0  0
  5  1  9  0  0  0  0
  6  8  1  0  0  0  0
  7  6  1  0  0  0  0
  9  6  1  0  0  0  0
  9 10  1  0  0  0  0
 11  9  1  0  0  0  0
 12 15  1  0  0  0  0
 12 13  1  0  0  0  0
 12 14  1  0  0  0  0
 15 16  1  0  0  0  0
 17 15  1  0  0  0  0
 18 15  1  0  0  0  0
 18 20  1  0  0  0  0
 18 19  1  0  0  0  0
 21 24  1  0  0  0  0
 21 23  1  0  0  0  0
 22 21  1  0  0  0  0
 24 25  1  0  0  0  0
 26 24  1  0  0  0  0
 27 28  1  0  0  0  0
 29 27  1  0  0  0  0
 30 32  1  0  0  0  0
 30 27  1  0  0  0  0
 30 33  1  0  0  0  0
 31 30  1  0  0  0  0
 33 34  1  0  0  0  0
 35 33  1  0  0  0  0
 37 36  1  0  0  0  0
 38 36  1  0  0  0  0
 39 36  1  0  0  0  0
 40 41  1  0  0  0  0
 42 40  1  0  0  0  0
 43 40  1  0  0  0  0
 44 47  1  0  0  0  0
 45 44  1  0  0  0  0
 46 44  1  0  0  0  0
 49 48  1  0  0  0  0
 50 48  1  0  0  0  0
 51 48  1  0  0  0  0
 52  1  1  0  0  0  0
 53 52  1  0  0  0  0
 54 55  2  0  0  0  0
 55 56  2  0  0  0  0
M  CHG  1   1   2
M  END
$$$$
