
 OpenBabel02052520053D

 54 57  0  0  0  0  0  0  0  0999 V2000
   -0.0385    0.0001    0.1719 Fe  0  2  0  0  0  0  0  0  0  0  0  0
   -1.4568   -1.6481   -0.0105 N   0  0  2  0  0  0  0  0  0  0  0  0
    1.4914   -1.6105    0.1028 N   0  0  1  0  0  0  0  0  0  0  0  0
    1.4907    1.6110    0.1029 N   0  0  1  0  0  0  0  0  0  0  0  0
   -1.4573    1.6475   -0.0105 N   0  0  1  0  0  0  0  0  0  0  0  0
   -0.6310   -2.6544   -0.7578 C   0  0  0  0  0  0  0  0  0  0  0  0
   -1.1825   -3.6012   -0.8206 H   0  0  0  0  0  0  0  0  0  0  0  0
   -0.4937   -2.2693   -1.7672 H   0  0  0  0  0  0  0  0  0  0  0  0
    0.7068   -2.8824   -0.0836 C   0  0  0  0  0  0  0  0  0  0  0  0
    1.3016   -3.5860   -0.6774 H   0  0  0  0  0  0  0  0  0  0  0  0
    0.5713   -3.3314    0.9009 H   0  0  0  0  0  0  0  0  0  0  0  0
    2.3536   -1.3184   -1.0907 C   0  0  0  0  0  0  0  0  0  0  0  0
    3.0759   -2.1420   -1.1719 H   0  0  0  0  0  0  0  0  0  0  0  0
    1.7079   -1.3438   -1.9681 H   0  0  0  0  0  0  0  0  0  0  0  0
    3.1375    0.0007   -1.0500 C   0  0  0  0  0  0  0  0  0  0  0  0
    3.7523    0.0008   -1.9579 H   0  0  0  0  0  0  0  0  0  0  0  0
    3.8594    0.0009   -0.2290 H   0  0  0  0  0  0  0  0  0  0  0  0
    2.3529    1.3193   -1.0907 C   0  0  0  0  0  0  0  0  0  0  0  0
    1.7070    1.3443   -1.9679 H   0  0  0  0  0  0  0  0  0  0  0  0
    3.0748    2.1433   -1.1720 H   0  0  0  0  0  0  0  0  0  0  0  0
    0.7058    2.8827   -0.0836 C   0  0  0  0  0  0  0  0  0  0  0  0
    0.5703    3.3321    0.9007 H   0  0  0  0  0  0  0  0  0  0  0  0
    1.3003    3.5863   -0.6777 H   0  0  0  0  0  0  0  0  0  0  0  0
   -0.6320    2.6542   -0.7578 C   0  0  0  0  0  0  0  0  0  0  0  0
   -0.4945    2.2692   -1.7671 H   0  0  0  0  0  0  0  0  0  0  0  0
   -1.1839    3.6007   -0.8205 H   0  0  0  0  0  0  0  0  0  0  0  0
   -2.6444    1.2794   -0.8483 C   0  0  0  0  0  0  0  0  0  0  0  0
   -2.2917    1.1767   -1.8756 H   0  0  0  0  0  0  0  0  0  0  0  0
   -3.3380    2.1299   -0.8139 H   0  0  0  0  0  0  0  0  0  0  0  0
   -3.3716   -0.0006   -0.4372 C   0  0  0  0  0  0  0  0  0  0  0  0
   -3.6402   -0.0007    0.6239 H   0  0  0  0  0  0  0  0  0  0  0  0
   -4.3279   -0.0008   -0.9725 H   0  0  0  0  0  0  0  0  0  0  0  0
   -2.6440   -1.2804   -0.8483 C   0  0  0  0  0  0  0  0  0  0  0  0
   -2.2913   -1.1775   -1.8756 H   0  0  0  0  0  0  0  0  0  0  0  0
   -3.3373   -2.1310   -0.8139 H   0  0  0  0  0  0  0  0  0  0  0  0
   -1.8904   -2.1690    1.3139 C   0  0  0  0  0  0  0  0  0  0  0  0
   -2.4380   -3.1095    1.1817 H   0  0  0  0  0  0  0  0  0  0  0  0
   -1.0291   -2.3340    1.9581 H   0  0  0  0  0  0  0  0  0  0  0  0
   -2.5547   -1.4484    1.7920 H   0  0  0  0  0  0  0  0  0  0  0  0
    2.2881   -1.7553    1.3505 C   0  0  0  0  0  0  0  0  0  0  0  0
    2.8640   -2.6877    1.3022 H   0  0  0  0  0  0  0  0  0  0  0  0
    1.6144   -1.7713    2.2059 H   0  0  0  0  0  0  0  0  0  0  0  0
    2.9812   -0.9306    1.4698 H   0  0  0  0  0  0  0  0  0  0  0  0
    2.2872    1.7559    1.3507 C   0  0  0  0  0  0  0  0  0  0  0  0
    2.9786    0.9299    1.4713 H   0  0  0  0  0  0  0  0  0  0  0  0
    1.6132    1.7739    2.2058 H   0  0  0  0  0  0  0  0  0  0  0  0
    2.8648    2.6871    1.3016 H   0  0  0  0  0  0  0  0  0  0  0  0
   -1.8913    2.1685    1.3139 C   0  0  0  0  0  0  0  0  0  0  0  0
   -1.0301    2.3346    1.9578 H   0  0  0  0  0  0  0  0  0  0  0  0
   -2.5553    1.4477    1.7921 H   0  0  0  0  0  0  0  0  0  0  0  0
   -2.4395    3.1087    1.1814 H   0  0  0  0  0  0  0  0  0  0  0  0
    0.0071   -0.0004    1.9244 O   0  0  0  0  0  0  0  0  0  0  0  0
   -0.8274   -0.0003    2.4251 H   0  0  0  0  0  0  0  0  0  0  0  0
   -0.0750   -0.0002   -1.5740 F   0  0  0  0  0  0  0  0  0  0  0  0
  1 52  1  0  0  0  0
  2 36  1  1  0  0  0
  2  1  9  0  0  0  0
  3 40  1  1  0  0  0
  3  1  9  0  0  0  0
  4 44  1  1  0  0  0
  4  1  9  0  0  0  0
  5 48  1  1  0  0  0
  5  1  9  0  0  0  0
  6  9  1  0  0  0  0
  6  2  1  0  0  0  0
  7  6  1  0  0  0  0
  8  6  1  0  0  0  0
  9  3  1  0  0  0  0
  9 11  1  0  0  0  0
 10  9  1  0  0  0  0
 12 15  1  0  0  0  0
 12  3  1  0  0  0  0
 13 12  1  0  0  0  0
 14 12  1  0  0  0  0
 15 17  1  0  0  0  0
 16 15  1  0  0  0  0
 18 15  1  0  0  0  0
 18  4  1  0  0  0  0
 19 18  1  0  0  0  0
 20 18  1  0  0  0  0
 21  4  1  0  0  0  0
 21 22  1  0  0  0  0
 23 21  1  0  0  0  0
 24 21  1  0  0  0  0
 24  5  1  0  0  0  0
 25 24  1  0  0  0  0
 26 24  1  0  0  0  0
 27 29  1  0  0  0  0
 27 30  1  0  0  0  0
 27  5  1  0  0  0  0
 28 27  1  0  0  0  0
 30 31  1  0  0  0  0
 32 30  1  0  0  0  0
 33 35  1  0  0  0  0
 33 30  1  0  0  0  0
 33  2  1  0  0  0  0
 34 33  1  0  0  0  0
 36 39  1  0  0  0  0
 36 38  1  0  0  0  0
 37 36  1  0  0  0  0
 40 43  1  0  0  0  0
 40 42  1  0  0  0  0
 41 40  1  0  0  0  0
 44 45  1  0  0  0  0
 44 46  1  0  0  0  0
 47 44  1  0  0  0  0
 48 50  1  0  0  0  0
 48 49  1  0  0  0  0
 51 48  1  0  0  0  0
 52 53  1  0  0  0  0
 54  1  1  0  0  0  0
M  CHG  1   1   2
M  END
$$$$
