
 OpenBabel02052520053D

 70 77  0  0  0  0  0  0  0  0999 V2000
    0.3424   -0.2907   -1.0776 Fe  0  0  0  0  0  0  0  0  0  0  0  0
    0.5971   -2.1262   -1.6164 O   0  0  0  0  0  0  0  0  0  0  0  0
   -4.9625    0.5813   -1.6473 C   0  0  0  0  0  0  0  0  0  0  0  0
   -5.1864   -0.6754   -2.2210 C   0  0  0  0  0  0  0  0  0  0  0  0
   -3.7823    3.1204   -0.1832 C   0  0  0  0  0  0  0  0  0  0  0  0
   -3.6354    0.9798   -1.4881 C   0  0  0  0  0  0  0  0  0  0  0  0
   -4.1210   -1.5070   -2.6023 C   0  0  0  0  0  0  0  0  0  0  0  0
   -3.0637    2.1275   -0.9461 N   0  0  0  0  0  0  0  0  0  0  0  0
   -2.3223    1.4078    3.4336 C   0  0  0  0  0  0  0  0  0  0  0  0
   -2.5579    0.1518   -1.8793 C   0  0  0  0  0  0  0  0  0  0  0  0
   -2.7933   -1.1081   -2.4326 C   0  0  0  0  0  0  0  0  0  0  0  0
   -1.6823    1.9238   -0.9387 C   0  0  0  0  0  0  0  0  0  0  0  0
   -0.6384    2.9073   -0.5461 C   0  0  0  0  0  0  0  0  0  0  0  0
   -1.3558    0.7737   -1.5615 N   0  0  0  0  0  0  0  0  0  0  0  0
    0.1761    1.8361    1.5297 C   0  0  0  0  0  0  0  0  0  0  0  0
   -1.7461    0.4422    2.5248 N   0  0  0  0  0  0  0  0  0  0  0  0
   -0.7469    0.6618    1.5871 C   0  0  0  0  0  0  0  0  0  0  0  0
   -3.3039   -1.5524    2.8559 C   0  0  0  0  0  0  0  0  0  0  0  0
    0.4594    2.2068    0.1398 N   0  0  1  0  0  0  0  0  0  0  0  0
   -2.2581   -0.8301    2.2801 C   0  0  0  0  0  0  0  0  0  0  0  0
   -0.5421   -0.4195    0.8331 N   0  0  0  0  0  0  0  0  0  0  0  0
   -3.5457   -2.8300    2.3416 C   0  0  0  0  0  0  0  0  0  0  0  0
   -1.4860   -1.3571    1.2206 C   0  0  0  0  0  0  0  0  0  0  0  0
    1.8146    2.6950   -0.0897 C   0  0  0  0  0  0  0  0  0  0  0  0
   -2.7792   -3.3586    1.2864 C   0  0  0  0  0  0  0  0  0  0  0  0
   -1.7399   -2.6314    0.7048 C   0  0  0  0  0  0  0  0  0  0  0  0
    2.7531    1.5383   -0.3003 C   0  0  0  0  0  0  0  0  0  0  0  0
    2.4018    0.4429   -0.9570 N   0  0  0  0  0  0  0  0  0  0  0  0
    4.0773    1.5258    0.0651 N   0  0  0  0  0  0  0  0  0  0  0  0
    4.7373    2.4101    1.0108 C   0  0  0  0  0  0  0  0  0  0  0  0
    3.5410   -0.3555   -1.0090 C   0  0  0  0  0  0  0  0  0  0  0  0
    3.7214   -1.6391   -1.5362 C   0  0  0  0  0  0  0  0  0  0  0  0
    4.6014    0.3106   -0.3603 C   0  0  0  0  0  0  0  0  0  0  0  0
    4.9833   -2.2129   -1.4050 C   0  0  0  0  0  0  0  0  0  0  0  0
    5.8659   -0.2637   -0.2195 C   0  0  0  0  0  0  0  0  0  0  0  0
    6.0396   -1.5360   -0.7618 C   0  0  0  0  0  0  0  0  0  0  0  0
   -5.7918    1.2076   -1.3312 H   0  0  0  0  0  0  0  0  0  0  0  0
   -6.2082   -1.0185   -2.3586 H   0  0  0  0  0  0  0  0  0  0  0  0
   -4.3346   -2.4859   -3.0225 H   0  0  0  0  0  0  0  0  0  0  0  0
   -1.9529   -1.7551   -2.6666 H   0  0  0  0  0  0  0  0  0  0  0  0
   -3.8880    2.8281    0.8737 H   0  0  0  0  0  0  0  0  0  0  0  0
   -3.2649    4.0825   -0.2303 H   0  0  0  0  0  0  0  0  0  0  0  0
   -4.7794    3.2533   -0.6103 H   0  0  0  0  0  0  0  0  0  0  0  0
   -0.1915    3.3697   -1.4439 H   0  0  0  0  0  0  0  0  0  0  0  0
   -1.0631    3.7241    0.0622 H   0  0  0  0  0  0  0  0  0  0  0  0
   -0.2229    2.6891    2.1048 H   0  0  0  0  0  0  0  0  0  0  0  0
    1.1338    1.5441    1.9827 H   0  0  0  0  0  0  0  0  0  0  0  0
   -1.5512    2.0877    3.8034 H   0  0  0  0  0  0  0  0  0  0  0  0
   -3.1146    1.9983    2.9504 H   0  0  0  0  0  0  0  0  0  0  0  0
   -2.7502    0.8832    4.2917 H   0  0  0  0  0  0  0  0  0  0  0  0
   -3.9119   -1.1462    3.6591 H   0  0  0  0  0  0  0  0  0  0  0  0
   -4.3528   -3.4232    2.7628 H   0  0  0  0  0  0  0  0  0  0  0  0
   -3.0120   -4.3508    0.9096 H   0  0  0  0  0  0  0  0  0  0  0  0
   -1.1426   -2.9904   -0.1294 H   0  0  0  0  0  0  0  0  0  0  0  0
    2.1774    3.3567    0.7116 H   0  0  0  0  0  0  0  0  0  0  0  0
    1.7989    3.2942   -1.0108 H   0  0  0  0  0  0  0  0  0  0  0  0
    5.8061    2.4398    0.7854 H   0  0  0  0  0  0  0  0  0  0  0  0
    4.3452    3.4245    0.9194 H   0  0  0  0  0  0  0  0  0  0  0  0
    4.5872    2.0448    2.0326 H   0  0  0  0  0  0  0  0  0  0  0  0
    6.6745    0.2437    0.2976 H   0  0  0  0  0  0  0  0  0  0  0  0
    7.0083   -2.0204   -0.6751 H   0  0  0  0  0  0  0  0  0  0  0  0
    5.1573   -3.2112   -1.7971 H   0  0  0  0  0  0  0  0  0  0  0  0
    2.8683   -2.1579   -1.9610 H   0  0  0  0  0  0  0  0  0  0  0  0
    2.7459   -0.2412    2.3695 N   0  0  0  0  0  0  0  0  0  0  0  0
    2.3581   -1.2423    1.9253 C   0  0  0  0  0  0  0  0  0  0  0  0
    1.8833   -2.5111    1.3797 C   0  0  0  0  0  0  0  0  0  0  0  0
    2.6588   -3.2750    1.4976 H   0  0  0  0  0  0  0  0  0  0  0  0
    0.9787   -2.8244    1.9096 H   0  0  0  0  0  0  0  0  0  0  0  0
    1.6307   -2.4167    0.3153 H   0  0  0  0  0  0  0  0  0  0  0  0
    0.5901   -2.3155   -2.5668 H   0  0  0  0  0  0  0  0  0  0  0  0
  2  1  1  0  0  0  0
  3  6  1  0  0  0  0
  3 37  1  0  0  0  0
  4  3  2  0  0  0  0
  5 41  1  0  0  0  0
  6  8  1  0  0  0  0
  7 11  2  0  0  0  0
  7  4  1  0  0  0  0
  8 12  1  0  0  0  0
  8  5  1  0  0  0  0
  9 48  1  0  0  0  0
  9 50  1  0  0  0  0
 10 14  1  0  0  0  0
 10  6  2  0  0  0  0
 11 10  1  0  0  0  0
 12 13  1  0  0  0  0
 13 45  1  0  0  0  0
 14 12  2  0  0  0  0
 14  1  9  0  0  0  0
 15 17  1  0  0  0  0
 15 47  1  0  0  0  0
 15 46  1  0  0  0  0
 16  9  1  0  0  0  0
 17 16  1  0  0  0  0
 18 51  1  0  0  0  0
 19 13  1  6  0  0  0
 19 15  1  0  0  0  0
 19  1  9  0  0  0  0
 20 16  1  0  0  0  0
 20 18  1  0  0  0  0
 21 23  1  0  0  0  0
 21 17  2  0  0  0  0
 21  1  9  0  0  0  0
 22 52  1  0  0  0  0
 22 18  2  0  0  0  0
 23 20  2  0  0  0  0
 24 19  1  0  0  0  0
 24 55  1  0  0  0  0
 25 22  1  0  0  0  0
 26 23  1  0  0  0  0
 26 25  2  0  0  0  0
 27 24  1  0  0  0  0
 27 29  1  0  0  0  0
 28 27  2  0  0  0  0
 28  1  9  0  0  0  0
 29 30  1  0  0  0  0
 30 59  1  0  0  0  0
 31 28  1  0  0  0  0
 31 33  1  0  0  0  0
 32 34  1  0  0  0  0
 32 31  2  0  0  0  0
 33 35  2  0  0  0  0
 33 29  1  0  0  0  0
 34 36  2  0  0  0  0
 35 60  1  0  0  0  0
 36 61  1  0  0  0  0
 36 35  1  0  0  0  0
 38  4  1  0  0  0  0
 39  7  1  0  0  0  0
 40 11  1  0  0  0  0
 42  5  1  0  0  0  0
 43  5  1  0  0  0  0
 44 13  1  0  0  0  0
 49  9  1  0  0  0  0
 53 25  1  0  0  0  0
 54 26  1  0  0  0  0
 56 24  1  0  0  0  0
 57 30  1  0  0  0  0
 58 30  1  0  0  0  0
 62 34  1  0  0  0  0
 63 32  1  0  0  0  0
 65 64  3  0  0  0  0
 66 67  1  0  0  0  0
 66 68  1  0  0  0  0
 66 65  1  0  0  0  0
 69 66  1  0  0  0  0
 70  2  1  0  0  0  0
M  END
$$$$
