
 OpenBabel02052520053D

 67 75  0  0  0  0  0  0  0  0999 V2000
   -0.0895   -0.1957   -1.0665 Fe  0  0  0  0  0  0  0  0  0  0  0  0
    0.8150    4.9281    1.2929 C   0  0  0  0  0  0  0  0  0  0  0  0
    0.8906    5.5626    0.0534 C   0  0  0  0  0  0  0  0  0  0  0  0
    0.5506    2.8877    3.7020 C   0  0  0  0  0  0  0  0  0  0  0  0
    0.5575    3.5559    1.2719 C   0  0  0  0  0  0  0  0  0  0  0  0
    0.7188    4.8549   -1.1552 C   0  0  0  0  0  0  0  0  0  0  0  0
    0.4116    2.6120    2.2847 N   0  0  0  0  0  0  0  0  0  0  0  0
   -4.5784   -1.8918    1.9377 C   0  0  0  0  0  0  0  0  0  0  0  0
    0.3867    2.8434    0.0673 C   0  0  0  0  0  0  0  0  0  0  0  0
    0.4647    3.4858   -1.1726 C   0  0  0  0  0  0  0  0  0  0  0  0
    0.1802    1.3993    1.6659 C   0  0  0  0  0  0  0  0  0  0  0  0
   -0.0350    0.1247    2.4486 C   0  0  0  0  0  0  0  0  0  0  0  0
    0.1516    1.5064    0.3598 N   0  0  0  0  0  0  0  0  0  0  0  0
   -1.4481   -1.7475    1.7046 C   0  0  0  0  0  0  0  0  0  0  0  0
   -3.8183   -1.1016    0.9857 N   0  0  0  0  0  0  0  0  0  0  0  0
   -2.4506   -1.0431    0.8272 C   0  0  0  0  0  0  0  0  0  0  0  0
   -5.6933   -0.1086   -0.4400 C   0  0  0  0  0  0  0  0  0  0  0  0
   -0.1445   -1.0853    1.6338 N   0  0  1  0  0  0  0  0  0  0  0  0
   -4.3747   -0.3817   -0.0703 C   0  0  0  0  0  0  0  0  0  0  0  0
   -2.1063   -0.3330   -0.2233 N   0  0  0  0  0  0  0  0  0  0  0  0
   -5.8689    0.6721   -1.5823 C   0  0  0  0  0  0  0  0  0  0  0  0
   -3.2792    0.1009   -0.8147 C   0  0  0  0  0  0  0  0  0  0  0  0
    1.0234   -1.9661    1.6864 C   0  0  0  0  0  0  0  0  0  0  0  0
   -4.7741    1.1562   -2.3307 C   0  0  0  0  0  0  0  0  0  0  0  0
   -3.4610    0.8787   -1.9617 C   0  0  0  0  0  0  0  0  0  0  0  0
    2.1181   -1.4686    0.7773 C   0  0  0  0  0  0  0  0  0  0  0  0
    1.8845   -0.7427   -0.2922 N   0  0  0  0  0  0  0  0  0  0  0  0
    3.4593   -1.7510    0.9265 N   0  0  0  0  0  0  0  0  0  0  0  0
    4.0900   -2.6299    1.8949 C   0  0  0  0  0  0  0  0  0  0  0  0
    3.1058   -0.5238   -0.9030 C   0  0  0  0  0  0  0  0  0  0  0  0
    3.4016    0.1907   -2.0674 C   0  0  0  0  0  0  0  0  0  0  0  0
    4.1146   -1.1628   -0.1540 C   0  0  0  0  0  0  0  0  0  0  0  0
    4.7384    0.2391   -2.4520 C   0  0  0  0  0  0  0  0  0  0  0  0
    5.4561   -1.1205   -0.5399 C   0  0  0  0  0  0  0  0  0  0  0  0
    5.7458   -0.4051   -1.7016 C   0  0  0  0  0  0  0  0  0  0  0  0
    0.9545    5.4764    2.2200 H   0  0  0  0  0  0  0  0  0  0  0  0
    1.0898    6.6303    0.0192 H   0  0  0  0  0  0  0  0  0  0  0  0
    0.7890    5.3957   -2.0949 H   0  0  0  0  0  0  0  0  0  0  0  0
    0.3299    2.9018   -2.0798 H   0  0  0  0  0  0  0  0  0  0  0  0
    0.1192    2.0747    4.2889 H   0  0  0  0  0  0  0  0  0  0  0  0
    1.6039    3.0089    3.9824 H   0  0  0  0  0  0  0  0  0  0  0  0
    0.0134    3.8088    3.9482 H   0  0  0  0  0  0  0  0  0  0  0  0
    0.7861    0.0133    3.1742 H   0  0  0  0  0  0  0  0  0  0  0  0
   -0.9494    0.2408    3.0494 H   0  0  0  0  0  0  0  0  0  0  0  0
   -1.8219   -1.8094    2.7411 H   0  0  0  0  0  0  0  0  0  0  0  0
   -1.3417   -2.7772    1.3433 H   0  0  0  0  0  0  0  0  0  0  0  0
   -3.9618   -2.1274    2.8066 H   0  0  0  0  0  0  0  0  0  0  0  0
   -5.4466   -1.3173    2.2738 H   0  0  0  0  0  0  0  0  0  0  0  0
   -4.9218   -2.8284    1.4843 H   0  0  0  0  0  0  0  0  0  0  0  0
   -6.5419   -0.4874    0.1217 H   0  0  0  0  0  0  0  0  0  0  0  0
   -6.8780    0.9076   -1.9087 H   0  0  0  0  0  0  0  0  0  0  0  0
   -4.9662    1.7536   -3.2174 H   0  0  0  0  0  0  0  0  0  0  0  0
   -2.5900    1.2166   -2.5186 H   0  0  0  0  0  0  0  0  0  0  0  0
    0.7274   -2.9655    1.3453 H   0  0  0  0  0  0  0  0  0  0  0  0
    1.4035   -2.0777    2.7164 H   0  0  0  0  0  0  0  0  0  0  0  0
    3.4570   -2.7318    2.7778 H   0  0  0  0  0  0  0  0  0  0  0  0
    4.2634   -3.6243    1.4683 H   0  0  0  0  0  0  0  0  0  0  0  0
    5.0481   -2.2008    2.2030 H   0  0  0  0  0  0  0  0  0  0  0  0
    6.2367   -1.6214    0.0248 H   0  0  0  0  0  0  0  0  0  0  0  0
    6.7763   -0.3473   -2.0407 H   0  0  0  0  0  0  0  0  0  0  0  0
    5.0173    0.7795   -3.3521 H   0  0  0  0  0  0  0  0  0  0  0  0
    2.5932    0.6627   -2.6211 H   0  0  0  0  0  0  0  0  0  0  0  0
   -0.0135    0.7978   -2.6727 O   0  0  0  0  0  0  0  0  0  0  0  0
   -0.0839    0.2421   -3.4640 H   0  0  0  0  0  0  0  0  0  0  0  0
   -0.3146   -2.2988   -1.5091 N   0  0  0  0  0  0  0  0  0  0  0  0
   -0.3922   -3.3787   -1.0337 C   0  0  0  0  0  0  0  0  0  0  0  0
   -0.4968   -4.8404   -0.2779 S   0  0  0  0  0  0  0  0  0  0  0  0
  2 36  1  0  0  0  0
  3  2  2  0  0  0  0
  4 42  1  0  0  0  0
  4 41  1  0  0  0  0
  4 40  1  0  0  0  0
  5  2  1  0  0  0  0
  5  7  1  0  0  0  0
  6  3  1  0  0  0  0
  7  4  1  0  0  0  0
  8 48  1  0  0  0  0
  8 47  1  0  0  0  0
  9 13  1  0  0  0  0
  9  5  2  0  0  0  0
 10  6  2  0  0  0  0
 10  9  1  0  0  0  0
 11  7  1  0  0  0  0
 11 12  1  0  0  0  0
 12 44  1  0  0  0  0
 12 43  1  0  0  0  0
 13 11  2  0  0  0  0
 13  1  9  0  0  0  0
 14 45  1  0  0  0  0
 15  8  1  0  0  0  0
 16 15  1  0  0  0  0
 16 14  1  0  0  0  0
 17 19  1  0  0  0  0
 17 50  1  0  0  0  0
 18 23  1  1  0  0  0
 18 14  1  0  0  0  0
 18 12  1  0  0  0  0
 18  1  9  0  0  0  0
 19 15  1  0  0  0  0
 20 16  2  0  0  0  0
 20  1  9  0  0  0  0
 21 17  2  0  0  0  0
 22 20  1  0  0  0  0
 22 19  2  0  0  0  0
 23 55  1  0  0  0  0
 24 25  2  0  0  0  0
 24 21  1  0  0  0  0
 25 22  1  0  0  0  0
 26 28  1  0  0  0  0
 26 23  1  0  0  0  0
 27 26  2  0  0  0  0
 27  1  9  0  0  0  0
 28 29  1  0  0  0  0
 29 58  1  0  0  0  0
 29 56  1  0  0  0  0
 30 27  1  0  0  0  0
 30 32  1  0  0  0  0
 31 30  2  0  0  0  0
 32 28  1  0  0  0  0
 33 31  1  0  0  0  0
 33 35  2  0  0  0  0
 34 32  2  0  0  0  0
 34 59  1  0  0  0  0
 35 34  1  0  0  0  0
 37  3  1  0  0  0  0
 38  6  1  0  0  0  0
 39 10  1  0  0  0  0
 46 14  1  0  0  0  0
 49  8  1  0  0  0  0
 51 21  1  0  0  0  0
 52 24  1  0  0  0  0
 53 25  1  0  0  0  0
 54 23  1  0  0  0  0
 57 29  1  0  0  0  0
 60 35  1  0  0  0  0
 61 33  1  0  0  0  0
 62 31  1  0  0  0  0
 63  1  1  0  0  0  0
 64 63  1  0  0  0  0
 65  1  1  0  0  0  0
 65 66  2  0  0  0  0
 66 67  2  0  0  0  0
M  END
$$$$
