
 OpenBabel02072512503D

 64 70  0  0  0  0  0  0  0  0999 V2000
    2.3426    5.0822    0.1750 H   0  0  0  0  0  0  0  0  0  0  0  0
    4.3839    3.6278   -0.1878 H   0  0  0  0  0  0  0  0  0  0  0  0
    3.3430    3.6570   -1.6062 H   0  0  0  0  0  0  0  0  0  0  0  0
    2.2854    3.9921    0.2537 C   0  0  0  0  0  0  0  0  0  0  0  0
    3.3987    3.3297   -0.5595 C   0  0  0  0  0  0  0  0  0  0  0  0
    2.3970    3.7442    1.3181 H   0  0  0  0  0  0  0  0  0  0  0  0
    0.8247    3.8248   -1.3077 H   0  0  0  0  0  0  0  0  0  0  0  0
    0.1146    4.0356    0.2815 H   0  0  0  0  0  0  0  0  0  0  0  0
    0.9151    3.5257   -0.2578 C   0  0  0  0  0  0  0  0  0  0  0  0
    4.0603    1.3272   -1.0710 H   0  0  0  0  0  0  0  0  0  0  0  0
    3.2749    1.8017   -0.4750 C   0  0  0  0  0  0  0  0  0  0  0  0
    3.4278    1.4944    0.5649 H   0  0  0  0  0  0  0  0  0  0  0  0
    1.7676    1.5895   -2.0025 H   0  0  0  0  0  0  0  0  0  0  0  0
   -1.3139    3.3187    1.3584 H   0  0  0  0  0  0  0  0  0  0  0  0
    1.8923    1.3189   -0.9504 C   0  0  2  0  0  0  0  0  0  0  0  0
    0.7640    1.9898   -0.1459 C   0  0  2  0  0  0  0  0  0  0  0  0
   -1.2501    3.1525   -1.7333 H   0  0  0  0  0  0  0  0  0  0  0  0
    0.8299    1.6860    0.9028 H   0  0  0  0  0  0  0  0  0  0  0  0
    4.3467   -1.0401   -0.4129 H   0  0  0  0  0  0  0  0  0  0  0  0
   -0.2214    2.0231   -2.6768 H   0  0  0  0  0  0  0  0  0  0  0  0
    5.1700   -1.9667    1.7099 H   0  0  0  0  0  0  0  0  0  0  0  0
    3.4079   -0.3544   -2.3206 H   0  0  0  0  0  0  0  0  0  0  0  0
   -1.0036    2.1067   -1.9263 C   0  0  0  0  0  0  0  0  0  0  0  0
   -3.4735    3.3275    2.5309 H   0  0  0  0  0  0  0  0  0  0  0  0
   -2.0110    2.5153    1.1626 C   0  3  0  0  0  0  0  0  0  0  0  0
    3.6434   -1.1829    0.3984 C   0  0  0  0  0  0  0  0  0  0  0  0
    4.1190   -1.7121    1.6217 C   0  0  0  0  0  0  0  0  0  0  0  0
   -0.5651    1.4487   -0.6439 N   0  0  2  0  0  0  0  0  0  0  0  0
    1.7575   -0.2190   -0.9587 N   0  0  0  0  0  0  0  0  0  0  0  0
    1.7878   -0.4825   -3.0539 H   0  0  0  0  0  0  0  0  0  0  0  0
   -3.2642    2.5250    1.8311 C   0  0  0  0  0  0  0  0  0  0  0  0
    2.4010   -0.7596   -2.1991 C   0  0  0  0  0  0  0  0  0  0  0  0
    2.3137   -0.8375    0.2520 C   0  0  0  0  0  0  0  0  0  0  0  0
   -1.8949    1.6002   -2.2909 H   0  0  0  0  0  0  0  0  0  0  0  0
   -1.7138    1.5123    0.2660 C   0  0  2  0  0  3  0  0  0  0  0  0
    3.6331   -2.2926    3.6301 H   0  0  0  0  0  0  0  0  0  0  0  0
    3.2674   -1.8946    2.6885 C   0  0  0  0  0  0  0  0  0  0  0  0
    1.4136   -1.0729    1.3131 C   0  0  0  0  0  0  0  0  0  0  0  0
    2.4583   -1.8445   -2.1207 H   0  0  0  0  0  0  0  0  0  0  0  0
    1.8880   -1.5928    2.5532 C   0  0  0  0  0  0  0  0  0  0  0  0
   -4.2199    1.5675    1.5742 C   0  0  0  0  0  0  0  0  0  0  0  0
   -0.2606   -0.6172   -0.9300 Fe  0  3  0  0  0 37  0  0  0  0  0  0
    0.0789   -0.8508    1.0861 N   0  0  0  0  0  0  0  0  0  0  0  0
   -5.1906    1.6071    2.0589 H   0  0  0  0  0  0  0  0  0  0  0  0
   -2.6501    0.4668    0.0669 C   0  0  0  0  0  0  0  0  0  0  0  0
    0.9338   -1.8213    3.5749 C   0  0  0  0  0  0  0  0  0  0  0  0
    1.2609   -2.2080    4.5360 H   0  0  0  0  0  0  0  0  0  0  0  0
   -3.9310    0.4996    0.6823 C   0  0  0  0  0  0  0  0  0  0  0  0
   -0.7896   -1.1133    2.0593 C   0  0  0  0  0  0  0  0  0  0  0  0
   -0.4009   -1.5752    3.3290 C   0  0  0  0  0  0  0  0  0  0  0  0
   -2.2434   -0.6099   -0.6817 N   0  0  0  0  0  0  0  0  0  0  0  0
   -1.8371   -0.9668    1.8350 H   0  0  0  0  0  0  0  0  0  0  0  0
   -1.1591   -1.7559    4.0827 H   0  0  0  0  0  0  0  0  0  0  0  0
   -4.8196   -0.5685    0.3920 C   0  0  0  0  0  0  0  0  0  0  0  0
   -3.0905   -1.6072   -0.9207 C   0  0  0  0  0  0  0  0  0  0  0  0
   -5.8154   -0.5683    0.8262 H   0  0  0  0  0  0  0  0  0  0  0  0
   -2.7087   -2.4451   -1.4926 H   0  0  0  0  0  0  0  0  0  0  0  0
   -4.4085   -1.6039   -0.4238 C   0  0  0  0  0  0  0  0  0  0  0  0
   -5.0650   -2.4339   -0.6601 H   0  0  0  0  0  0  0  0  0  0  0  0
   -0.3484   -0.4553   -2.6995 O   0  0  0  0  0  1  0  0  0  0  0  0
   -1.2670   -0.4827   -3.0237 H   0  0  0  0  0  0  0  0  0  0  0  0
   -0.0596   -2.4446   -0.9877 N   0  0  0  0  0  0  0  0  0  0  0  0
    0.0342   -3.0284   -2.0746 N   0  3  0  0  0  0  0  0  0  0  0  0
    0.1343   -3.6420   -3.0303 N   0  5  0  0  0  0  0  0  0  0  0  0
  1  4  1  0  0  0  0
  3  5  1  0  0  0  0
  4  6  1  0  0  0  0
  5 11  1  0  0  0  0
  5  2  1  0  0  0  0
  5  4  1  0  0  0  0
  7  9  1  0  0  0  0
  9 16  1  0  0  0  0
  9  4  1  0  0  0  0
  9  8  1  0  0  0  0
 10 11  1  0  0  0  0
 11 12  1  0  0  0  0
 15 13  1  6  0  0  0
 15 11  1  0  0  0  0
 15 16  1  0  0  0  0
 16 18  1  1  0  0  0
 19 26  1  0  0  0  0
 20 23  1  0  0  0  0
 22 32  1  0  0  0  0
 23 17  1  0  0  0  0
 25 14  1  0  0  0  0
 25 31  1  0  0  0  0
 26 27  1  0  0  0  0
 27 21  1  0  0  0  0
 27 37  2  0  0  0  0
 28 23  1  6  0  0  0
 28 16  1  0  0  0  0
 28 35  1  0  0  0  0
 28 42  9  0  0  0  0
 29 15  1  0  0  0  0
 29 33  1  0  0  0  0
 29 42  9  0  0  0  0
 30 32  1  0  0  0  0
 31 24  1  0  0  0  0
 32 39  1  0  0  0  0
 32 29  1  0  0  0  0
 33 26  2  0  0  0  0
 33 38  1  0  0  0  0
 34 23  1  0  0  0  0
 35 45  1  6  0  0  0
 35 25  1  0  0  0  0
 37 36  1  0  0  0  0
 38 40  1  0  0  0  0
 40 37  1  0  0  0  0
 40 46  2  0  0  0  0
 41 31  2  0  0  0  0
 41 44  1  0  0  0  0
 42 62  1  0  0  0  0
 43 38  2  0  0  0  0
 43 49  1  0  0  0  0
 43 42  9  0  0  0  0
 45 48  2  0  0  0  0
 46 47  1  0  0  0  0
 48 41  1  0  0  0  0
 49 50  2  0  0  0  0
 50 46  1  0  0  0  0
 50 53  1  0  0  0  0
 51 45  1  0  0  0  0
 51 42  9  0  0  0  0
 52 49  1  0  0  0  0
 54 48  1  0  0  0  0
 54 56  1  0  0  0  0
 55 51  2  0  0  0  0
 55 58  1  0  0  0  0
 57 55  1  0  0  0  0
 58 54  2  0  0  0  0
 59 58  1  0  0  0  0
 61 60  1  0  0  0  0
 63 62  2  0  0  0  0
 64 63  2  0  0  0  0
M  RAD  3  35   2  42   2  60   2
M  CHG  4  25   1  42   1  63   1  64  -1
M  END
$$$$
