
 OpenBabel02052520053D

 67 74  0  0  0  0  0  0  0  0999 V2000
   -3.7573   -4.4275   -0.0528 H   0  0  0  0  0  0  0  0  0  0  0  0
   -5.3477   -2.4961   -0.4332 H   0  0  0  0  0  0  0  0  0  0  0  0
   -4.2712   -2.7241   -1.8070 H   0  0  0  0  0  0  0  0  0  0  0  0
   -3.4288   -3.3909    0.0730 C   0  0  0  0  0  0  0  0  0  0  0  0
   -4.3006   -2.4385   -0.7468 C   0  0  0  0  0  0  0  0  0  0  0  0
   -3.5183   -3.1565    1.1428 H   0  0  0  0  0  0  0  0  0  0  0  0
   -1.9284   -3.5432   -1.4410 H   0  0  0  0  0  0  0  0  0  0  0  0
   -1.3345   -3.9807    0.1470 H   0  0  0  0  0  0  0  0  0  0  0  0
   -1.9704   -3.2664   -0.3822 C   0  0  0  0  0  0  0  0  0  0  0  0
   -4.4220   -0.3110   -1.1549 H   0  0  0  0  0  0  0  0  0  0  0  0
   -3.8030   -0.9981   -0.5687 C   0  0  0  0  0  0  0  0  0  0  0  0
   -3.9215   -0.7298    0.4864 H   0  0  0  0  0  0  0  0  0  0  0  0
   -2.2263   -1.0321   -2.0406 H   0  0  0  0  0  0  0  0  0  0  0  0
   -0.0027   -3.4063    1.5353 H   0  0  0  0  0  0  0  0  0  0  0  0
   -2.3247   -0.8299   -0.9691 C   0  0  2  0  0  0  0  0  0  0  0  0
   -1.4222   -1.8299   -0.2139 C   0  0  2  0  0  0  0  0  0  0  0  0
    0.3090   -3.5114   -1.7668 H   0  0  0  0  0  0  0  0  0  0  0  0
   -1.4158   -1.5542    0.8466 H   0  0  0  0  0  0  0  0  0  0  0  0
   -4.1290    1.6067    0.2374 H   0  0  0  0  0  0  0  0  0  0  0  0
   -0.4505   -2.1822   -2.7055 H   0  0  0  0  0  0  0  0  0  0  0  0
   -4.4450    2.5837    2.4659 H   0  0  0  0  0  0  0  0  0  0  0  0
   -3.4228    1.5874   -1.8675 H   0  0  0  0  0  0  0  0  0  0  0  0
    0.2976   -2.4362   -1.9569 C   0  0  0  0  0  0  0  0  0  0  0  0
    1.9466   -3.9680    2.9142 H   0  0  0  0  0  0  0  0  0  0  0  0
    0.9367   -2.9132    1.3219 C   0  0  0  0  0  0  0  0  0  0  0  0
   -3.2711    1.6786    0.8941 C   0  0  0  0  0  0  0  0  0  0  0  0
   -3.4548    2.2484    2.1751 C   0  0  0  0  0  0  0  0  0  0  0  0
    0.0090   -1.6811   -0.6845 N   0  0  0  0  0  0  0  0  0  0  0  0
   -1.8069    0.6010   -0.8278 N   0  0  0  0  0  0  0  0  0  0  0  0
   -2.0637    1.0258   -2.8777 H   0  0  0  0  0  0  0  0  0  0  0  0
    2.0666   -3.2443    2.1147 C   0  0  0  0  0  0  0  0  0  0  0  0
   -2.3376    1.4708   -1.9221 C   0  0  0  0  0  0  0  0  0  0  0  0
   -2.0341    1.2148    0.4813 C   0  0  0  0  0  0  0  0  0  0  0  0
    1.2675   -2.1217   -2.3373 H   0  0  0  0  0  0  0  0  0  0  0  0
    1.0454   -2.0060    0.2883 C   0  0  0  0  0  0  0  0  0  0  0  0
   -2.5290    2.8022    4.0303 H   0  0  0  0  0  0  0  0  0  0  0  0
   -2.3940    2.3729    3.0421 C   0  0  0  0  0  0  0  0  0  0  0  0
   -0.9143    1.3948    1.3364 C   0  0  0  0  0  0  0  0  0  0  0  0
   -1.8694    2.4531   -1.8343 H   0  0  0  0  0  0  0  0  0  0  0  0
   -1.0982    1.9663    2.6356 C   0  0  0  0  0  0  0  0  0  0  0  0
    3.3040   -2.6998    1.8569 C   0  0  0  0  0  0  0  0  0  0  0  0
    0.2368    0.2864   -3.0076 O   0  0  0  0  0  0  0  0  0  0  0  0
    0.3749    0.4290   -1.2175 Fe  0  2  0  0  0  0  0  0  0  0  0  0
    0.3331    1.0610    0.8775 N   0  0  0  0  0  0  0  0  0  0  0  0
    4.1730   -2.9908    2.4391 H   0  0  0  0  0  0  0  0  0  0  0  0
    2.2963   -1.3613    0.0755 C   0  0  0  0  0  0  0  0  0  0  0  0
    0.0466    2.1333    3.4527 C   0  0  0  0  0  0  0  0  0  0  0  0
   -0.0668    2.5509    4.4493 H   0  0  0  0  0  0  0  0  0  0  0  0
    3.4466   -1.7343    0.8254 C   0  0  0  0  0  0  0  0  0  0  0  0
    1.3852    1.2698    1.6635 C   0  0  0  0  0  0  0  0  0  0  0  0
    1.2890    1.7855    2.9680 C   0  0  0  0  0  0  0  0  0  0  0  0
    2.3394   -0.3400   -0.8351 N   0  0  0  0  0  0  0  0  0  0  0  0
    2.3548    1.0272    1.2466 H   0  0  0  0  0  0  0  0  0  0  0  0
    2.1874    1.9143    3.5613 H   0  0  0  0  0  0  0  0  0  0  0  0
    0.9901    2.6186   -1.4929 N   0  0  0  0  0  0  0  0  0  0  0  0
    4.6673   -1.0852    0.5061 C   0  0  0  0  0  0  0  0  0  0  0  0
    3.4960    0.2530   -1.1099 C   0  0  0  0  0  0  0  0  0  0  0  0
    1.2461    3.7320   -1.6852 C   0  0  0  0  0  0  0  0  0  0  0  0
    5.5718   -1.3592    1.0423 H   0  0  0  0  0  0  0  0  0  0  0  0
    3.4613    1.0576   -1.8376 H   0  0  0  0  0  0  0  0  0  0  0  0
    4.6993   -0.1127   -0.4745 C   0  0  0  0  0  0  0  0  0  0  0  0
    0.6462    5.7022   -2.0862 H   0  0  0  0  0  0  0  0  0  0  0  0
    1.5681    5.1321   -1.9294 C   0  0  0  0  0  0  0  0  0  0  0  0
    5.6226    0.3884   -0.7435 H   0  0  0  0  0  0  0  0  0  0  0  0
    2.1037    5.5483   -1.0699 H   0  0  0  0  0  0  0  0  0  0  0  0
    2.1964    5.2199   -2.8221 H   0  0  0  0  0  0  0  0  0  0  0  0
    0.3640    0.9307   -3.7220 H   0  0  0  0  0  0  0  0  0  0  0  0
  1  4  1  0  0  0  0
  3  5  1  0  0  0  0
  4  6  1  0  0  0  0
  5 11  1  0  0  0  0
  5  2  1  0  0  0  0
  5  4  1  0  0  0  0
  7  9  1  0  0  0  0
  9 16  1  0  0  0  0
  9  4  1  0  0  0  0
  9  8  1  0  0  0  0
 10 11  1  0  0  0  0
 11 12  1  0  0  0  0
 15 13  1  6  0  0  0
 15 29  1  0  0  0  0
 15 11  1  0  0  0  0
 15 16  1  0  0  0  0
 16 18  1  1  0  0  0
 19 26  1  0  0  0  0
 20 23  1  0  0  0  0
 23 17  1  0  0  0  0
 23 28  1  0  0  0  0
 25 14  1  0  0  0  0
 25 31  1  0  0  0  0
 26 27  1  0  0  0  0
 27 21  1  0  0  0  0
 27 37  2  0  0  0  0
 28 16  1  0  0  0  0
 28 35  1  0  0  0  0
 28 43  9  0  0  0  0
 29 33  1  0  0  0  0
 29 43  9  0  0  0  0
 30 32  1  0  0  0  0
 31 24  1  0  0  0  0
 32 22  1  0  0  0  0
 32 39  1  0  0  0  0
 32 29  1  0  0  0  0
 33 26  2  0  0  0  0
 33 38  1  0  0  0  0
 34 23  1  0  0  0  0
 35 25  2  0  0  0  0
 37 36  1  0  0  0  0
 38 40  1  0  0  0  0
 40 37  1  0  0  0  0
 40 47  2  0  0  0  0
 41 31  2  0  0  0  0
 41 45  1  0  0  0  0
 42 43  1  0  0  0  0
 44 38  2  0  0  0  0
 44 50  1  0  0  0  0
 44 43  9  0  0  0  0
 46 35  1  0  0  0  0
 46 49  1  0  0  0  0
 47 48  1  0  0  0  0
 49 41  1  0  0  0  0
 50 51  2  0  0  0  0
 51 47  1  0  0  0  0
 51 54  1  0  0  0  0
 52 46  2  0  0  0  0
 52 43  9  0  0  0  0
 53 50  1  0  0  0  0
 55 43  9  0  0  0  0
 56 49  2  0  0  0  0
 56 59  1  0  0  0  0
 57 52  1  0  0  0  0
 57 61  2  0  0  0  0
 58 55  3  0  0  0  0
 60 57  1  0  0  0  0
 61 56  1  0  0  0  0
 62 63  1  0  0  0  0
 63 58  1  0  0  0  0
 63 65  1  0  0  0  0
 64 61  1  0  0  0  0
 66 63  1  0  0  0  0
 67 42  1  0  0  0  0
M  CHG  1  43   2
M  END
$$$$
