
 OpenBabel02052520053D

 62 69  0  0  0  0  0  0  0  0999 V2000
    3.4142   -3.9247   -2.2288 H   0  0  0  0  0  0  0  0  0  0  0  0
    5.1011   -2.5950   -0.8891 H   0  0  0  0  0  0  0  0  0  0  0  0
    3.9492   -3.4076    0.1644 H   0  0  0  0  0  0  0  0  0  0  0  0
    3.1599   -2.9490   -1.8016 C   0  0  0  0  0  0  0  0  0  0  0  0
    4.0464   -2.6243   -0.5992 C   0  0  0  0  0  0  0  0  0  0  0  0
    3.3104   -2.2043   -2.5948 H   0  0  0  0  0  0  0  0  0  0  0  0
    1.5784   -3.7795   -0.6262 H   0  0  0  0  0  0  0  0  0  0  0  0
    1.0258   -3.2043   -2.1949 H   0  0  0  0  0  0  0  0  0  0  0  0
    1.6966   -2.9747   -1.3588 C   0  0  0  0  0  0  0  0  0  0  0  0
    4.3026   -1.0038    0.8139 H   0  0  0  0  0  0  0  0  0  0  0  0
    3.6480   -1.2598   -0.0245 C   0  0  0  0  0  0  0  0  0  0  0  0
    3.8051   -0.5084   -0.8051 H   0  0  0  0  0  0  0  0  0  0  0  0
    2.0453   -1.8924    1.2827 H   0  0  0  0  0  0  0  0  0  0  0  0
   -0.2859   -1.4640   -2.9514 H   0  0  0  0  0  0  0  0  0  0  0  0
    2.1813   -1.1985    0.4504 C   0  0  2  0  0  0  0  0  0  0  0  0
    1.2373   -1.6344   -0.7156 C   0  0  2  0  0  0  0  0  0  0  0  0
   -0.6425   -3.7991   -0.0353 H   0  0  0  0  0  0  0  0  0  0  0  0
    1.2483   -0.8339   -1.4612 H   0  0  0  0  0  0  0  0  0  0  0  0
    4.1467    1.4161    0.3518 H   0  0  0  0  0  0  0  0  0  0  0  0
    0.3240   -3.1140    1.3126 H   0  0  0  0  0  0  0  0  0  0  0  0
    4.4053    3.3511   -1.1363 H   0  0  0  0  0  0  0  0  0  0  0  0
    3.5640    0.3923    2.2853 H   0  0  0  0  0  0  0  0  0  0  0  0
   -0.4889   -2.9339    0.6182 C   0  0  0  0  0  0  0  0  0  0  0  0
   -2.3476   -1.0244   -4.2149 H   0  0  0  0  0  0  0  0  0  0  0  0
   -1.1920   -1.2127   -2.4127 C   0  0  0  0  0  0  0  0  0  0  0  0
    3.2584    1.8453   -0.0947 C   0  0  0  0  0  0  0  0  0  0  0  0
    3.4090    2.9690   -0.9397 C   0  0  0  0  0  0  0  0  0  0  0  0
   -0.1687   -1.7690   -0.2559 N   0  0  0  0  0  0  0  0  0  0  0  0
    1.7985    0.1557    1.0469 N   0  0  0  0  0  0  0  0  0  0  0  0
    2.1859   -0.4678    3.0291 H   0  0  0  0  0  0  0  0  0  0  0  0
   -2.3732   -0.9838   -3.1309 C   0  0  0  0  0  0  0  0  0  0  0  0
    2.4762    0.3537    2.3743 C   0  0  0  0  0  0  0  0  0  0  0  0
    2.0112    1.3067    0.1721 C   0  0  0  0  0  0  0  0  0  0  0  0
   -1.3890   -2.7390    1.1923 H   0  0  0  0  0  0  0  0  0  0  0  0
   -1.2198   -1.2698   -1.0075 C   0  0  0  0  0  0  0  0  0  0  0  0
    2.4163    4.4461   -2.1390 H   0  0  0  0  0  0  0  0  0  0  0  0
    2.3070    3.5790   -1.4946 C   0  0  0  0  0  3  0  0  0  0  0  0
    0.8590    1.9569   -0.3460 C   0  0  0  0  0  0  0  0  0  0  0  0
    2.1188    1.2951    2.7955 H   0  0  0  0  0  0  0  0  0  0  0  0
    1.0070    3.1029   -1.1894 C   0  0  0  0  0  0  0  0  0  0  0  0
   -3.5812   -0.7728   -2.4747 C   0  0  0  0  0  0  0  0  0  0  0  0
   -0.3474    0.1514    1.7285 Fe  0  2  0  0  0  0  0  0  0  0  0  0
   -0.3797    1.5114    0.0345 N   0  0  0  0  0  0  0  0  0  0  0  0
   -4.4966   -0.6378   -3.0438 H   0  0  0  0  0  0  0  0  0  0  0  0
   -2.4264   -0.8657   -0.3209 C   0  0  0  0  0  0  0  0  0  0  0  0
   -0.1700    3.7472   -1.6427 C   0  0  0  0  0  0  0  0  0  0  0  0
   -0.0863    4.6167   -2.2886 H   0  0  0  0  0  0  0  0  0  0  0  0
   -3.6252   -0.6797   -1.0540 C   0  0  0  0  0  0  0  0  0  0  0  0
   -1.4577    2.1784   -0.3715 C   0  0  0  0  0  0  0  0  0  0  0  0
   -1.4036    3.2892   -1.2300 C   0  0  0  0  0  0  0  0  0  0  0  0
   -2.3326   -0.5292    0.9939 N   0  0  0  0  0  0  0  0  0  0  0  0
   -2.4109    1.8330    0.0107 H   0  0  0  0  0  0  0  0  0  0  0  0
   -2.3217    3.7818   -1.5300 H   0  0  0  0  0  0  0  0  0  0  0  0
   -4.7878   -0.3117   -0.3278 C   0  0  0  0  0  0  0  0  0  0  0  0
   -3.4329   -0.1558    1.6504 C   0  0  0  0  0  0  0  0  0  0  0  0
   -5.7318   -0.1878   -0.8512 H   0  0  0  0  0  0  0  0  0  0  0  0
   -3.2900    0.1338    2.6862 H   0  0  0  0  0  0  0  0  0  0  0  0
   -4.6970   -0.0827    1.0326 C   0  0  0  0  0  0  0  0  0  0  0  0
   -5.5643    0.2037    1.6173 H   0  0  0  0  0  0  0  0  0  0  0  0
   -0.7595    1.4561    2.8970 O   0  0  0  0  0  0  0  0  0  0  0  0
   -0.6949    1.3148    3.8586 H   0  0  0  0  0  0  0  0  0  0  0  0
    0.0397   -1.2974    2.6858 F   0  0  0  0  0  0  0  0  0  0  0  0
  1  4  1  0  0  0  0
  2  5  1  0  0  0  0
  4  9  1  0  0  0  0
  4  5  1  0  0  0  0
  5 11  1  0  0  0  0
  5  3  1  0  0  0  0
  6  4  1  0  0  0  0
  8  9  1  0  0  0  0
  9 16  1  0  0  0  0
  9  7  1  0  0  0  0
 11 15  1  0  0  0  0
 11 10  1  0  0  0  0
 12 11  1  0  0  0  0
 14 25  1  0  0  0  0
 15 29  1  0  0  0  0
 15 13  1  1  0  0  0
 16 18  1  6  0  0  0
 16 28  1  0  0  0  0
 16 15  1  0  0  0  0
 17 23  1  0  0  0  0
 21 27  1  0  0  0  0
 22 32  1  0  0  0  0
 23 34  1  0  0  0  0
 23 20  1  0  0  0  0
 24 31  1  0  0  0  0
 25 35  2  0  0  0  0
 26 33  1  0  0  0  0
 26 19  1  0  0  0  0
 27 26  2  0  0  0  0
 28 23  1  0  0  0  0
 28 42  9  0  0  0  0
 29 32  1  0  0  0  0
 29 42  9  0  0  0  0
 31 41  2  0  0  0  0
 31 25  1  0  0  0  0
 32 39  1  0  0  0  0
 32 30  1  0  0  0  0
 33 29  1  0  0  0  0
 35 45  1  0  0  0  0
 35 28  1  0  0  0  0
 36 37  1  0  0  0  0
 37 40  1  0  0  0  0
 37 27  1  0  0  0  0
 38 43  1  0  0  0  0
 38 33  2  0  0  0  0
 40 38  1  0  0  0  0
 41 48  1  0  0  0  0
 42 62  1  0  0  0  0
 42 60  1  0  0  0  0
 43 42  1  0  0  0  0
 44 41  1  0  0  0  0
 45 51  2  0  0  0  0
 46 50  1  0  0  0  0
 46 40  2  0  0  0  0
 47 46  1  0  0  0  0
 48 54  2  0  0  0  0
 48 45  1  0  0  0  0
 49 52  1  0  0  0  0
 49 43  1  0  0  0  0
 50 49  2  0  0  0  0
 51 55  1  0  0  0  0
 51 42  9  0  0  0  0
 53 50  1  0  0  0  0
 54 58  1  0  0  0  0
 55 57  1  0  0  0  0
 56 54  1  0  0  0  0
 58 59  1  0  0  0  0
 58 55  2  0  0  0  0
 60 61  1  0  0  0  0
M  RAD  1  37   2
M  CHG  1  42   2
M  END
$$$$
