
 OpenBabel02052520053D

 62 68  0  0  0  0  0  0  0  0999 V2000
   -3.5578   -1.0463    4.3607 H   0  0  0  0  0  0  0  0  0  0  0  0
   -5.1494   -1.2607    2.4076 H   0  0  0  0  0  0  0  0  0  0  0  0
   -3.8710   -2.4661    2.3135 H   0  0  0  0  0  0  0  0  0  0  0  0
   -3.2933   -0.6629    3.3697 C   0  0  0  0  0  0  0  0  0  0  0  0
   -4.0711   -1.3871    2.2710 C   0  0  0  0  0  0  0  0  0  0  0  0
   -3.5397    0.4074    3.3656 H   0  0  0  0  0  0  0  0  0  0  0  0
   -1.5903   -1.9441    3.2421 H   0  0  0  0  0  0  0  0  0  0  0  0
   -1.1972   -0.3663    3.9138 H   0  0  0  0  0  0  0  0  0  0  0  0
   -1.7953   -0.8733    3.1475 C   0  0  0  0  0  0  0  0  0  0  0  0
   -4.2548   -1.3005    0.1147 H   0  0  0  0  0  0  0  0  0  0  0  0
   -3.6730   -0.8166    0.9043 C   0  0  0  0  0  0  0  0  0  0  0  0
   -3.9322    0.2464    0.9023 H   0  0  0  0  0  0  0  0  0  0  0  0
   -1.9400   -2.0379    0.4898 H   0  0  0  0  0  0  0  0  0  0  0  0
    0.0712    1.4533    3.2118 H   0  0  0  0  0  0  0  0  0  0  0  0
   -2.1713   -0.9735    0.5883 C   0  0  2  0  0  0  0  0  0  0  0  0
   -1.3152   -0.3820    1.7519 C   0  0  2  0  0  0  0  0  0  0  0  0
    0.6641   -2.2144    2.9446 H   0  0  0  0  0  0  0  0  0  0  0  0
   -1.3934    0.7074    1.6923 H   0  0  0  0  0  0  0  0  0  0  0  0
   -4.1697    0.9189   -1.1708 H   0  0  0  0  0  0  0  0  0  0  0  0
   -0.2453   -2.8105    1.5240 H   0  0  0  0  0  0  0  0  0  0  0  0
   -4.5305    3.3307   -1.3843 H   0  0  0  0  0  0  0  0  0  0  0  0
   -3.5216   -1.0049   -1.9034 H   0  0  0  0  0  0  0  0  0  0  0  0
    0.5240   -2.1228    1.8621 C   0  0  0  0  0  0  0  0  0  0  0  0
    2.0563    2.7662    3.8310 H   0  0  0  0  0  0  0  0  0  0  0  0
    1.0037    1.2822    2.6867 C   0  0  0  0  0  0  0  0  0  0  0  0
   -3.3082    1.5714   -1.1113 C   0  0  0  0  0  0  0  0  0  0  0  0
   -3.5187    2.9624   -1.2514 C   0  0  0  0  0  0  0  0  0  0  0  0
    0.1205   -0.7183    1.5738 N   0  0  0  0  0  0  0  0  0  0  0  0
   -1.7749   -0.3892   -0.7742 N   0  0  0  0  0  0  0  0  0  0  0  0
   -2.2178   -2.2098   -1.7762 H   0  0  0  0  0  0  0  0  0  0  0  0
    2.1418    2.0127    3.0549 C   0  0  0  0  0  0  0  0  0  0  0  0
   -2.4404   -1.1501   -1.8909 C   0  0  0  0  0  0  0  0  0  0  0  0
   -2.0403    1.0476   -0.9187 C   0  0  0  0  0  0  0  0  0  0  0  0
    1.4510   -2.3645    1.3510 H   0  0  0  0  0  0  0  0  0  0  0  0
    1.1129    0.2311    1.7597 C   0  0  0  0  0  0  0  0  0  0  0  0
   -2.6099    4.9040   -1.3542 H   0  0  0  0  0  0  0  0  0  0  0  0
   -2.4552    3.8356   -1.2367 C   0  0  0  0  0  0  0  0  0  0  0  0
   -0.9273    1.9296   -0.9512 C   0  0  2  0  0  3  0  0  0  0  0  0
   -2.0212   -0.7951   -2.8337 H   0  0  0  0  0  0  0  0  0  0  0  0
   -1.1346    3.3360   -1.1145 C   0  0  0  0  0  0  0  0  0  0  0  0
    3.3849    1.7358    2.4944 C   0  0  0  0  0  0  0  0  0  0  0  0
    0.4004   -0.7252   -1.2477 Fe  0  2  0  0  0  0  0  0  0  0  0  0
    0.3342    1.4026   -0.9003 N   0  0  0  0  0  2  0  0  0  0  0  0
    4.2662    2.2787    2.8240 H   0  0  0  0  0  0  0  0  0  0  0  0
    2.3515    0.0727    1.0325 C   0  0  0  0  0  0  0  0  0  0  0  0
    0.0083    4.1676   -1.2027 C   0  0  0  0  0  0  0  0  0  0  0  0
   -0.1213    5.2397   -1.3225 H   0  0  0  0  0  0  0  0  0  0  0  0
    3.5092    0.7755    1.4497 C   0  0  0  0  0  0  0  0  0  0  0  0
    1.3801    2.2119   -1.0466 C   0  0  0  0  0  0  0  0  0  0  0  0
    1.2674    3.6058   -1.1778 C   0  0  0  0  0  0  0  0  0  0  0  0
    2.3263   -0.6451   -0.1225 N   0  0  0  0  0  0  0  0  0  0  0  0
    2.3545    1.7392   -1.0805 H   0  0  0  0  0  0  0  0  0  0  0  0
    2.1615    4.2100   -1.2839 H   0  0  0  0  0  0  0  0  0  0  0  0
    4.7100    0.5463    0.7284 C   0  0  0  0  0  0  0  0  0  0  0  0
    3.4642   -0.8367   -0.7929 C   0  0  0  0  0  0  0  0  0  0  0  0
    5.6249    1.0464    1.0334 H   0  0  0  0  0  0  0  0  0  0  0  0
    3.3835   -1.4143   -1.7081 H   0  0  0  0  0  0  0  0  0  0  0  0
    4.6933   -0.2914   -0.3718 C   0  0  0  0  0  0  0  0  0  0  0  0
    5.5928   -0.4925   -0.9433 H   0  0  0  0  0  0  0  0  0  0  0  0
    0.7296   -0.3968   -2.9827 O   0  0  0  0  0  0  0  0  0  0  0  0
    0.8003   -1.1237   -3.6281 H   0  0  0  0  0  0  0  0  0  0  0  0
    0.3915   -3.1681   -1.2994 Br  0  0  0  0  0  0  0  0  0  0  0  0
  4  1  1  0  0  0  0
  5  3  1  0  0  0  0
  5  2  1  0  0  0  0
  5  4  1  0  0  0  0
  6  4  1  0  0  0  0
  9  7  1  0  0  0  0
  9  4  1  0  0  0  0
  9  8  1  0  0  0  0
 10 11  1  0  0  0  0
 11  5  1  0  0  0  0
 12 11  1  0  0  0  0
 15 13  1  6  0  0  0
 15 11  1  0  0  0  0
 15 16  1  0  0  0  0
 16 18  1  6  0  0  0
 16  9  1  0  0  0  0
 19 26  1  0  0  0  0
 20 23  1  0  0  0  0
 21 27  1  0  0  0  0
 22 32  1  0  0  0  0
 23 17  1  0  0  0  0
 25 31  2  0  0  0  0
 25 14  1  0  0  0  0
 26 33  2  0  0  0  0
 27 37  2  0  0  0  0
 27 26  1  0  0  0  0
 28 16  1  0  0  0  0
 28 35  1  0  0  0  0
 28 23  1  0  0  0  0
 28 42  9  0  0  0  0
 29 15  1  0  0  0  0
 29 42  9  0  0  0  0
 31 24  1  0  0  0  0
 32 30  1  0  0  0  0
 32 29  1  0  0  0  0
 33 29  1  0  0  0  0
 34 23  1  0  0  0  0
 35 25  1  0  0  0  0
 36 37  1  0  0  0  0
 37 40  1  0  0  0  0
 38 33  1  6  0  0  0
 38 43  1  0  0  0  0
 39 32  1  0  0  0  0
 40 38  1  0  0  0  0
 41 44  1  0  0  0  0
 41 31  1  0  0  0  0
 42 62  1  0  0  0  0
 45 48  1  0  0  0  0
 45 35  2  0  0  0  0
 46 50  1  0  0  0  0
 46 40  2  0  0  0  0
 47 46  1  0  0  0  0
 48 41  2  0  0  0  0
 49 43  1  0  0  0  0
 50 49  2  0  0  0  0
 51 45  1  0  0  0  0
 51 42  9  0  0  0  0
 52 49  1  0  0  0  0
 53 50  1  0  0  0  0
 54 56  1  0  0  0  0
 54 48  1  0  0  0  0
 55 58  1  0  0  0  0
 55 51  2  0  0  0  0
 57 55  1  0  0  0  0
 58 54  2  0  0  0  0
 59 58  1  0  0  0  0
 60 42  1  0  0  0  0
 61 60  1  0  0  0  0
M  RAD  2  38   2  43   2
M  CHG  1  42   2
M  END
$$$$
