
 OpenBabel02052520053D

 67 74  0  0  0  0  0  0  0  0999 V2000
    2.6104    1.0901    4.8041 H   0  0  0  0  0  0  0  0  0  0  0  0
    4.5452    1.3596    3.1920 H   0  0  0  0  0  0  0  0  0  0  0  0
    3.3281    2.6103    2.9653 H   0  0  0  0  0  0  0  0  0  0  0  0
    2.5306    0.7633    3.7624 C   0  0  0  0  0  0  0  0  0  0  0  0
    3.5116    1.5311    2.8749 C   0  0  0  0  0  0  0  0  0  0  0  0
    2.7697   -0.3091    3.7468 H   0  0  0  0  0  0  0  0  0  0  0  0
    0.8909    2.0690    3.3261 H   0  0  0  0  0  0  0  0  0  0  0  0
    0.3786    0.5093    3.9299 H   0  0  0  0  0  0  0  0  0  0  0  0
    1.0982    0.9943    3.2666 C   0  0  0  0  0  0  0  0  0  0  0  0
    4.0414    1.6518    0.7753 H   0  0  0  0  0  0  0  0  0  0  0  0
    3.3541    1.0880    1.4146 C   0  0  0  0  0  0  0  0  0  0  0  0
    3.6371    0.0324    1.3404 H   0  0  0  0  0  0  0  0  0  0  0  0
    1.6610    2.3265    0.9292 H   0  0  0  0  0  0  0  0  0  0  0  0
   -0.6992   -1.0414    3.4618 H   0  0  0  0  0  0  0  0  0  0  0  0
    1.9119    1.2606    0.9005 C   0  0  2  0  0  0  0  0  0  0  0  0
    0.9007    0.5200    1.8065 C   0  0  2  0  0  0  0  0  0  0  0  0
   -1.3315    2.0448    2.7540 H   0  0  0  0  0  0  0  0  0  0  0  0
    1.0917   -0.5562    1.7369 H   0  0  0  0  0  0  0  0  0  0  0  0
    4.3706    0.3855   -1.2379 H   0  0  0  0  0  0  0  0  0  0  0  0
   -0.4016    2.8428    1.4539 H   0  0  0  0  0  0  0  0  0  0  0  0
    5.3768   -1.7919   -1.7541 H   0  0  0  0  0  0  0  0  0  0  0  0
    3.2752    2.2573   -1.2690 H   0  0  0  0  0  0  0  0  0  0  0  0
   -1.0952    2.0349    1.6869 C   0  0  0  0  0  0  0  0  0  0  0  0
   -2.5685   -2.5641    3.9026 H   0  0  0  0  0  0  0  0  0  0  0  0
   -1.4978   -1.0954    2.7341 C   0  0  0  0  0  0  0  0  0  0  0  0
    3.7319   -0.4891   -1.2413 C   0  0  0  0  0  0  0  0  0  0  0  0
    4.3154   -1.7436   -1.5344 C   0  0  0  0  0  0  0  0  0  0  0  0
   -0.4988    0.7210    1.2786 N   0  0  0  0  0  0  0  0  0  0  0  0
    1.7519    0.8936   -0.5753 N   0  0  0  0  0  0  0  0  0  0  0  0
    1.6210    2.8946   -1.2326 H   0  0  0  0  0  0  0  0  0  0  0  0
   -2.5824   -1.9734    2.9925 C   0  0  0  0  0  0  0  0  0  0  0  0
    2.2246    2.0128   -1.4461 C   0  0  0  0  0  0  0  0  0  0  0  0
    2.3865   -0.3754   -0.9419 C   0  0  0  0  0  0  0  0  0  0  0  0
   -2.0101    2.1933    1.1171 H   0  0  0  0  0  0  0  0  0  0  0  0
   -1.4731   -0.3157    1.5956 C   0  0  0  0  0  0  0  0  0  0  0  0
    3.9994   -3.8571   -1.7359 H   0  0  0  0  0  0  0  0  0  0  0  0
    3.5532   -2.8894   -1.5272 C   0  0  0  0  0  0  0  0  0  0  0  0
   -0.9720    5.9334   -1.7994 H   0  0  0  0  0  0  0  0  0  0  0  0
    1.5713   -1.5361   -0.9984 C   0  0  0  0  0  0  0  0  0  0  0  0
    2.0770    1.7264   -2.4873 H   0  0  0  0  0  0  0  0  0  0  0  0
    2.1612   -2.8099   -1.2706 C   0  0  0  0  0  0  0  0  0  0  0  0
   -3.6553   -2.0521    2.1346 C   0  0  0  0  0  0  0  0  0  0  0  0
   -0.8725    2.8375   -1.1839 N   0  0  0  0  0  0  0  0  0  0  0  0
   -0.3999    0.6723   -1.0161 Fe  0  2  0  0  0  0  0  0  0  0  0  0
   -1.2285    3.8607   -1.5927 C   0  0  0  0  0  0  0  0  0  0  0  0
    0.2165   -1.4031   -0.8374 N   0  0  0  0  0  0  0  0  0  0  0  0
   -1.6700    5.1481   -2.1090 C   0  0  0  0  0  0  0  0  0  0  0  0
   -4.5020   -2.6942    2.3571 H   0  0  0  0  0  0  0  0  0  0  0  0
   -2.5279   -0.4656    0.6501 C   0  0  0  0  0  0  0  0  0  0  0  0
    1.3061   -3.9396   -1.3027 C   0  0  0  0  0  0  0  0  0  0  0  0
    1.7291   -4.9219   -1.4939 H   0  0  0  0  0  0  0  0  0  0  0  0
   -2.6673    5.3836   -1.7228 H   0  0  0  0  0  0  0  0  0  0  0  0
   -3.6465   -1.3020    0.9291 C   0  0  0  0  0  0  0  0  0  0  0  0
   -0.5555   -2.4830   -0.9041 C   0  0  0  0  0  0  0  0  0  0  0  0
   -1.7063    5.1117   -3.2031 H   0  0  0  0  0  0  0  0  0  0  0  0
   -0.0494   -3.7791   -1.1115 C   0  0  0  0  0  0  0  0  0  0  0  0
   -2.3954    0.1552   -0.5645 N   0  0  0  0  0  0  0  0  0  0  0  0
   -1.6217   -2.3224   -0.8026 H   0  0  0  0  0  0  0  0  0  0  0  0
   -0.7316   -4.6214   -1.1416 H   0  0  0  0  0  0  0  0  0  0  0  0
   -0.3847    0.6019   -2.8225 O   0  0  0  0  0  0  0  0  0  0  0  0
   -4.6714   -1.3671   -0.0503 C   0  0  0  0  0  0  0  0  0  0  0  0
   -3.3585    0.0491   -1.4773 C   0  0  0  0  0  0  0  0  0  0  0  0
   -5.5508   -1.9760    0.1413 H   0  0  0  0  0  0  0  0  0  0  0  0
   -3.1635    0.5319   -2.4296 H   0  0  0  0  0  0  0  0  0  0  0  0
   -4.5396   -0.6790   -1.2411 C   0  0  0  0  0  0  0  0  0  0  0  0
   -5.3071   -0.7200   -2.0060 H   0  0  0  0  0  0  0  0  0  0  0  0
   -0.1452   -0.1084   -3.4398 H   0  0  0  0  0  0  0  0  0  0  0  0
  4  1  1  0  0  0  0
  5  3  1  0  0  0  0
  5  2  1  0  0  0  0
  5  4  1  0  0  0  0
  6  4  1  0  0  0  0
  9  7  1  0  0  0  0
  9  4  1  0  0  0  0
  9  8  1  0  0  0  0
 10 11  1  0  0  0  0
 11  5  1  0  0  0  0
 12 11  1  0  0  0  0
 15 13  1  1  0  0  0
 15 11  1  0  0  0  0
 15 16  1  0  0  0  0
 16 18  1  6  0  0  0
 16  9  1  0  0  0  0
 20 23  1  0  0  0  0
 21 27  1  0  0  0  0
 23 17  1  0  0  0  0
 25 31  1  0  0  0  0
 25 14  1  0  0  0  0
 26 19  1  0  0  0  0
 26 33  1  0  0  0  0
 27 37  1  0  0  0  0
 27 26  2  0  0  0  0
 28 35  1  0  0  0  0
 28 23  1  0  0  0  0
 28 16  1  0  0  0  0
 28 44  9  0  0  0  0
 29 15  1  0  0  0  0
 29 44  9  0  0  0  0
 31 24  1  0  0  0  0
 32 22  1  0  0  0  0
 32 30  1  0  0  0  0
 32 29  1  0  0  0  0
 33 29  1  0  0  0  0
 34 23  1  0  0  0  0
 35 25  2  0  0  0  0
 36 37  1  0  0  0  0
 37 41  2  0  0  0  0
 39 33  2  0  0  0  0
 39 46  1  0  0  0  0
 40 32  1  0  0  0  0
 41 39  1  0  0  0  0
 42 48  1  0  0  0  0
 42 31  2  0  0  0  0
 43 44  9  0  0  0  0
 45 43  3  0  0  0  0
 46 44  9  0  0  0  0
 47 38  1  0  0  0  0
 47 52  1  0  0  0  0
 47 45  1  0  0  0  0
 49 53  1  0  0  0  0
 49 35  1  0  0  0  0
 50 41  1  0  0  0  0
 50 56  2  0  0  0  0
 51 50  1  0  0  0  0
 53 42  1  0  0  0  0
 54 46  2  0  0  0  0
 54 58  1  0  0  0  0
 55 47  1  0  0  0  0
 56 54  1  0  0  0  0
 57 49  2  0  0  0  0
 57 44  9  0  0  0  0
 59 56  1  0  0  0  0
 60 44  1  0  0  0  0
 61 63  1  0  0  0  0
 61 53  2  0  0  0  0
 62 65  2  0  0  0  0
 62 57  1  0  0  0  0
 64 62  1  0  0  0  0
 65 61  1  0  0  0  0
 66 65  1  0  0  0  0
 67 60  1  0  0  0  0
M  CHG  1  44   2
M  END
$$$$
