
 OpenBabel02052520053D

 62 68  0  0  0  0  0  0  0  0999 V2000
   -3.5701   -3.0232    3.2319 H   0  0  0  0  0  0  0  0  0  0  0  0
   -5.1797   -2.1979    1.4651 H   0  0  0  0  0  0  0  0  0  0  0  0
   -3.9637   -3.2581    0.7626 H   0  0  0  0  0  0  0  0  0  0  0  0
   -3.2915   -2.2188    2.5430 C   0  0  0  0  0  0  0  0  0  0  0  0
   -4.1098   -2.2867    1.2536 C   0  0  0  0  0  0  0  0  0  0  0  0
   -3.4843   -1.2714    3.0642 H   0  0  0  0  0  0  0  0  0  0  0  0
   -1.6541   -3.3479    1.7666 H   0  0  0  0  0  0  0  0  0  0  0  0
   -1.1806   -2.3065    3.1033 H   0  0  0  0  0  0  0  0  0  0  0  0
   -1.8069   -2.3569    2.2048 C   0  0  0  0  0  0  0  0  0  0  0  0
   -4.3006   -1.1557   -0.5838 H   0  0  0  0  0  0  0  0  0  0  0  0
   -3.6899   -1.1421    0.3235 C   0  0  0  0  0  0  0  0  0  0  0  0
   -3.8929   -0.2019    0.8451 H   0  0  0  0  0  0  0  0  0  0  0  0
   -2.0254   -2.0838   -0.6819 H   0  0  0  0  0  0  0  0  0  0  0  0
    0.1770   -0.4159    3.3185 H   0  0  0  0  0  0  0  0  0  0  0  0
   -2.2003   -1.1914   -0.0751 C   0  0  2  0  0  0  0  0  0  0  0  0
   -1.3094   -1.2740    1.2051 C   0  0  2  0  0  0  0  0  0  0  0  0
    0.5880   -3.5391    1.2980 H   0  0  0  0  0  0  0  0  0  0  0  0
   -1.3313   -0.2888    1.6800 H   0  0  0  0  0  0  0  0  0  0  0  0
   -4.1032    1.4025   -0.6250 H   0  0  0  0  0  0  0  0  0  0  0  0
   -0.3756   -3.3327   -0.1959 H   0  0  0  0  0  0  0  0  0  0  0  0
   -4.3236    3.6359    0.3567 H   0  0  0  0  0  0  0  0  0  0  0  0
   -3.5618    0.0357   -2.2346 H   0  0  0  0  0  0  0  0  0  0  0  0
    0.4362   -2.9291    0.4010 C   0  0  0  0  0  0  0  0  0  0  0  0
    2.2302    0.3557    4.4301 H   0  0  0  0  0  0  0  0  0  0  0  0
    1.0969   -0.3562    2.7485 C   0  0  0  0  0  0  0  0  0  0  0  0
   -3.2044    1.9071   -0.2942 C   0  0  0  0  0  0  0  0  0  0  0  0
   -3.3338    3.2031    0.2562 C   0  0  0  0  0  0  0  0  0  0  0  0
    0.1062   -1.5462    0.8476 N   0  0  0  0  0  0  0  0  0  0  0  0
   -1.7823   -0.0398   -0.9976 N   0  0  0  0  0  0  0  0  0  0  0  0
   -2.3131   -1.1291   -2.7425 H   0  0  0  0  0  0  0  0  0  0  0  0
    2.2729    0.0599    3.3870 C   0  0  0  0  0  0  0  0  0  0  0  0
   -2.4884   -0.1390   -2.3241 C   0  0  0  0  0  0  0  0  0  0  0  0
   -1.9672    1.2985   -0.4262 C   0  0  0  0  0  0  0  0  0  0  0  0
    1.3389   -2.9289   -0.2020 H   0  0  0  0  0  0  0  0  0  0  0  0
    1.1472   -0.8440    1.4302 C   0  0  0  0  0  0  0  0  0  0  0  0
   -2.3127    4.9130    1.0560 H   0  0  0  0  0  0  0  0  0  0  0  0
   -2.2202    3.9132    0.6426 C   0  0  0  0  0  0  0  0  0  0  0  0
   -0.8043    2.0369   -0.0804 C   0  0  2  0  0  3  0  0  0  0  0  0
   -2.0594    0.6126   -2.9889 H   0  0  0  0  0  0  0  0  0  0  0  0
   -0.9297    3.3571    0.4567 C   0  0  0  0  0  0  0  0  0  0  0  0
    3.4976    0.0294    2.7268 C   0  0  0  0  0  0  0  0  0  0  0  0
    0.3693   -0.2210   -1.6494 Fe  0  2  0  0  0  0  0  0  0  0  0  0
    0.4241    1.4931   -0.3410 N   0  0  0  0  0  2  0  0  0  0  0  0
    4.4073    0.3107    3.2496 H   0  0  0  0  0  0  0  0  0  0  0  0
    2.3733   -0.6896    0.6797 C   0  0  0  0  0  0  0  0  0  0  0  0
    0.2595    4.0766    0.7284 C   0  0  0  0  0  0  0  0  0  0  0  0
    0.1926    5.0796    1.1407 H   0  0  0  0  0  0  0  0  0  0  0  0
    3.5673   -0.3213    1.3478 C   0  0  0  0  0  0  0  0  0  0  0  0
    1.5142    2.2254   -0.1267 C   0  0  0  0  0  0  0  0  0  0  0  0
    1.4829    3.5152    0.4287 C   0  0  0  0  0  0  0  0  0  0  0  0
    2.3058   -0.7660   -0.6762 N   0  0  0  0  0  0  0  0  0  0  0  0
    2.4579    1.7828   -0.4225 H   0  0  0  0  0  0  0  0  0  0  0  0
    2.4097    4.0554    0.5864 H   0  0  0  0  0  0  0  0  0  0  0  0
    4.7513   -0.2299    0.5702 C   0  0  0  0  0  0  0  0  0  0  0  0
    3.4284   -0.6612   -1.3897 C   0  0  0  0  0  0  0  0  0  0  0  0
    5.6923    0.0240    1.0503 H   0  0  0  0  0  0  0  0  0  0  0  0
    3.3126   -0.7216   -2.4671 H   0  0  0  0  0  0  0  0  0  0  0  0
    4.6864   -0.4384   -0.7953 C   0  0  0  0  0  0  0  0  0  0  0  0
    5.5716   -0.3801   -1.4192 H   0  0  0  0  0  0  0  0  0  0  0  0
    0.7427    0.8614   -3.0362 O   0  0  0  0  0  0  0  0  0  0  0  0
    0.7521    0.5105   -3.9457 H   0  0  0  0  0  0  0  0  0  0  0  0
    0.1548   -2.2079   -2.6756 Cl  0  0  0  0  0  0  0  0  0  0  0  0
  3  5  1  0  0  0  0
  4  6  1  0  0  0  0
  4  1  1  0  0  0  0
  5  2  1  0  0  0  0
  5  4  1  0  0  0  0
  7  9  1  0  0  0  0
  9  4  1  0  0  0  0
  9  8  1  0  0  0  0
 10 11  1  0  0  0  0
 11 12  1  0  0  0  0
 11  5  1  0  0  0  0
 15 13  1  6  0  0  0
 15 11  1  0  0  0  0
 15 16  1  0  0  0  0
 16 18  1  1  0  0  0
 16  9  1  0  0  0  0
 19 26  1  0  0  0  0
 20 23  1  0  0  0  0
 23 28  1  0  0  0  0
 23 17  1  0  0  0  0
 25 14  1  0  0  0  0
 25 31  1  0  0  0  0
 26 27  1  0  0  0  0
 27 21  1  0  0  0  0
 27 37  2  0  0  0  0
 28 16  1  0  0  0  0
 28 35  1  0  0  0  0
 28 42  9  0  0  0  0
 29 33  1  0  0  0  0
 29 15  1  0  0  0  0
 29 42  9  0  0  0  0
 30 32  1  0  0  0  0
 31 24  1  0  0  0  0
 32 22  1  0  0  0  0
 32 29  1  0  0  0  0
 33 26  2  0  0  0  0
 34 23  1  0  0  0  0
 35 25  2  0  0  0  0
 37 36  1  0  0  0  0
 38 33  1  6  0  0  0
 38 40  1  0  0  0  0
 39 32  1  0  0  0  0
 40 37  1  0  0  0  0
 40 46  2  0  0  0  0
 41 44  1  0  0  0  0
 41 31  2  0  0  0  0
 43 49  1  0  0  0  0
 43 38  1  0  0  0  0
 45 48  1  0  0  0  0
 45 35  1  0  0  0  0
 46 47  1  0  0  0  0
 48 41  1  0  0  0  0
 49 50  2  0  0  0  0
 50 53  1  0  0  0  0
 50 46  1  0  0  0  0
 51 45  2  0  0  0  0
 51 42  9  0  0  0  0
 52 49  1  0  0  0  0
 54 56  1  0  0  0  0
 54 48  2  0  0  0  0
 55 58  2  0  0  0  0
 55 51  1  0  0  0  0
 57 55  1  0  0  0  0
 58 54  1  0  0  0  0
 59 58  1  0  0  0  0
 60 42  1  0  0  0  0
 61 60  1  0  0  0  0
 62 42  1  0  0  0  0
M  RAD  2  38   2  43   2
M  CHG  1  42   2
M  END
$$$$
