
 OpenBabel02052520053D

 62 69  0  0  0  0  0  0  0  0999 V2000
    3.5827   -2.0732    3.5867 H   0  0  0  0  0  0  0  0  0  0  0  0
   -0.6149   -0.1479    2.9489 H   0  0  0  0  0  0  0  0  0  0  0  0
   -1.0424    1.5790    2.9821 H   0  0  0  0  0  0  0  0  0  0  0  0
    1.2251   -1.8379    2.7747 H   0  0  0  0  0  0  0  0  0  0  0  0
   -5.5178    0.8274    2.2891 H   0  0  0  0  0  0  0  0  0  0  0  0
   -3.1535    1.3723    2.7107 H   0  0  0  0  0  0  0  0  0  0  0  0
   -0.4954    0.8071    2.4393 C   0  0  0  0  0  0  0  0  0  0  0  0
    3.3881   -1.5847    2.6385 C   0  0  0  0  0  0  0  0  0  0  0  0
    0.5576    1.0804    2.4035 H   0  0  0  0  0  0  0  0  0  0  0  0
    2.0570   -1.4400    2.2061 C   0  0  0  0  0  0  0  0  0  0  0  0
   -4.7638    0.4497    1.6066 C   0  0  0  0  0  0  0  0  0  0  0  0
   -3.4021    0.7550    1.8556 C   0  0  0  0  0  0  0  0  0  0  0  0
    5.4529   -1.2870    2.1232 H   0  0  0  0  0  0  0  0  0  0  0  0
   -0.4964    3.3239    1.7318 H   0  0  0  0  0  0  0  0  0  0  0  0
    4.4170   -1.1450    1.8288 C   0  0  0  0  0  0  0  0  0  0  0  0
   -6.1810   -0.5054    0.3090 H   0  0  0  0  0  0  0  0  0  0  0  0
   -5.1349   -0.2924    0.5065 C   0  0  0  0  0  0  0  0  0  0  0  0
   -2.1703    3.1802    1.1790 H   0  0  0  0  0  0  0  0  0  0  0  0
   -2.4244    0.2859    1.0021 C   0  0  0  0  0  0  0  0  0  0  0  0
   -1.0081    0.6479    1.0516 N   0  0  0  0  0  0  0  0  0  0  0  0
    1.7519   -0.8366    1.0609 N   0  0  0  0  0  0  0  0  0  0  0  0
   -1.1280    3.2002    0.8450 C   0  0  0  0  0  0  0  0  0  0  0  0
   -1.1081    5.3176    0.4360 H   0  0  0  0  0  0  0  0  0  0  0  0
   -4.1456   -0.8062   -0.3745 C   0  0  0  0  0  0  0  0  0  0  0  0
   -2.7805   -0.5323   -0.0905 C   0  0  0  0  0  0  0  0  0  0  0  0
   -0.0232   -0.9624    0.1411 Fe  0  2  0  0  0  0  0  0  0  0  0  0
    1.3267    1.9055    0.4529 H   0  0  0  0  0  0  0  0  0  0  0  0
   -0.7904    1.8695    0.1497 C   0  0  1  0  0  0  0  0  0  0  0  0
    4.1206   -0.5220    0.5907 C   0  0  0  0  0  0  0  0  0  0  0  0
    1.2561    4.5195    0.2792 H   0  0  0  0  0  0  0  0  0  0  0  0
    2.7503   -0.3584    0.2558 C   0  0  0  0  0  0  0  0  0  0  0  0
   -0.8760    4.3894   -0.0953 C   0  0  0  0  0  0  0  0  0  0  0  0
   -1.7646   -1.0764   -0.8368 N   0  0  0  0  0  0  0  0  0  0  0  0
   -4.4276   -1.6013   -1.5132 C   0  0  0  0  0  0  0  0  0  0  0  0
   -5.4594   -1.8281   -1.7668 H   0  0  0  0  0  0  0  0  0  0  0  0
   -1.4826    1.7271   -0.6848 H   0  0  0  0  0  0  0  0  0  0  0  0
    0.6327    1.8619   -0.3907 C   0  0  1  0  0  0  0  0  0  0  0  0
    0.5787    4.3874   -0.5751 C   0  0  0  0  0  0  0  0  0  0  0  0
   -1.5555    4.3398   -0.9567 H   0  0  0  0  0  0  0  0  0  0  0  0
    6.1478   -0.2149   -0.1157 H   0  0  0  0  0  0  0  0  0  0  0  0
    5.0950   -0.0887   -0.3488 C   0  0  0  0  0  0  0  0  0  0  0  0
   -2.0615   -1.8306   -1.8967 C   0  0  0  0  0  0  0  0  0  0  0  0
    0.9251    0.5109   -1.0650 N   0  0  0  0  0  0  0  0  0  0  0  0
   -3.3888   -2.0896   -2.2816 C   0  0  0  0  0  0  0  0  0  0  0  0
    2.3665    0.2591   -0.9516 C   0  0  0  0  0  0  0  0  0  0  0  0
    0.7635    5.2240   -1.2558 H   0  0  0  0  0  0  0  0  0  0  0  0
    0.8974    3.0716   -1.3031 C   0  0  0  0  0  0  0  0  0  0  0  0
   -1.2280   -2.2643   -2.4338 H   0  0  0  0  0  0  0  0  0  0  0  0
   -3.5707   -2.7014   -3.1581 H   0  0  0  0  0  0  0  0  0  0  0  0
    1.9398    3.0537   -1.6361 H   0  0  0  0  0  0  0  0  0  0  0  0
    4.7020    0.4602   -1.5494 C   0  0  0  0  0  0  0  0  0  0  0  0
    0.2622    3.0107   -2.1939 H   0  0  0  0  0  0  0  0  0  0  0  0
    3.3292    0.6469   -1.8580 C   0  0  0  0  0  0  0  0  0  0  0  0
   -0.6361    0.6314   -2.4888 H   0  0  0  0  0  0  0  0  0  0  0  0
    0.4314    0.4185   -2.4696 C   0  0  0  0  0  0  0  0  0  0  0  0
    5.4463    0.7709   -2.2751 H   0  0  0  0  0  0  0  0  0  0  0  0
    0.6143   -0.5948   -2.8236 H   0  0  0  0  0  0  0  0  0  0  0  0
    3.0646    1.1032   -2.8046 H   0  0  0  0  0  0  0  0  0  0  0  0
    0.9440    1.1276   -3.1202 H   0  0  0  0  0  0  0  0  0  0  0  0
   -0.6636   -1.9724    1.4298 O   0  0  0  0  0  0  0  0  0  0  0  0
   -0.6236   -2.9205    1.1925 H   0  0  0  0  0  0  0  0  0  0  0  0
    0.8916   -2.6509   -1.0370 Cl  0  0  0  0  0  0  0  0  0  0  0  0
  7  2  1  0  0  0  0
  7  3  1  0  0  0  0
  8  1  1  0  0  0  0
  9  7  1  0  0  0  0
 10  8  1  0  0  0  0
 10  4  1  0  0  0  0
 11 12  1  0  0  0  0
 11  5  1  0  0  0  0
 12  6  1  0  0  0  0
 15 13  1  0  0  0  0
 15  8  2  0  0  0  0
 16 17  1  0  0  0  0
 17 11  2  0  0  0  0
 19 20  1  0  0  0  0
 19 12  2  0  0  0  0
 20  7  1  0  0  0  0
 20 26  9  0  0  0  0
 21 10  2  0  0  0  0
 21 26  9  0  0  0  0
 22 18  1  0  0  0  0
 22 14  1  0  0  0  0
 24 25  1  0  0  0  0
 24 17  1  0  0  0  0
 25 19  1  0  0  0  0
 26 60  1  0  0  0  0
 28 36  1  6  0  0  0
 28 22  1  0  0  0  0
 28 20  1  0  0  0  0
 29 15  1  0  0  0  0
 31 29  1  0  0  0  0
 31 21  1  0  0  0  0
 32 23  1  0  0  0  0
 32 22  1  0  0  0  0
 33 25  2  0  0  0  0
 33 26  9  0  0  0  0
 34 24  2  0  0  0  0
 35 34  1  0  0  0  0
 37 28  1  0  0  0  0
 37 27  1  1  0  0  0
 38 32  1  0  0  0  0
 38 30  1  0  0  0  0
 39 32  1  0  0  0  0
 41 40  1  0  0  0  0
 41 29  2  0  0  0  0
 42 33  1  0  0  0  0
 43 45  1  0  0  0  0
 43 37  1  0  0  0  0
 43 26  9  0  0  0  0
 44 42  2  0  0  0  0
 44 34  1  0  0  0  0
 45 31  2  0  0  0  0
 46 38  1  0  0  0  0
 47 38  1  0  0  0  0
 47 37  1  0  0  0  0
 48 42  1  0  0  0  0
 49 44  1  0  0  0  0
 50 47  1  0  0  0  0
 51 41  1  0  0  0  0
 52 47  1  0  0  0  0
 53 51  2  0  0  0  0
 53 45  1  0  0  0  0
 54 55  1  0  0  0  0
 55 43  1  0  0  0  0
 56 51  1  0  0  0  0
 57 55  1  0  0  0  0
 58 53  1  0  0  0  0
 59 55  1  0  0  0  0
 61 60  1  0  0  0  0
 62 26  1  0  0  0  0
M  CHG  1  26   2
M  END
$$$$
