
 OpenBabel02052520053D

 62 69  0  0  0  0  0  0  0  0999 V2000
    2.3240    5.2414    0.3567 H   0  0  0  0  0  0  0  0  0  0  0  0
    4.3732    3.7984   -0.0177 H   0  0  0  0  0  0  0  0  0  0  0  0
    3.3522    3.8701   -1.4490 H   0  0  0  0  0  0  0  0  0  0  0  0
    2.2688    4.1494    0.4052 C   0  0  0  0  0  0  0  0  0  0  0  0
    3.3933    3.5121   -0.4118 C   0  0  0  0  0  0  0  0  0  0  0  0
    2.3680    3.8734    1.4639 H   0  0  0  0  0  0  0  0  0  0  0  0
    0.8215    4.0230   -1.1760 H   0  0  0  0  0  0  0  0  0  0  0  0
    0.0993    4.1873    0.4128 H   0  0  0  0  0  0  0  0  0  0  0  0
    0.9053    3.6955   -0.1340 C   0  0  0  0  0  0  0  0  0  0  0  0
    4.0622    1.5270   -0.9762 H   0  0  0  0  0  0  0  0  0  0  0  0
    3.2694    1.9821   -0.3751 C   0  0  0  0  0  0  0  0  0  0  0  0
    3.4088    1.6414    0.6564 H   0  0  0  0  0  0  0  0  0  0  0  0
    1.7795    1.8276   -1.9250 H   0  0  0  0  0  0  0  0  0  0  0  0
   -1.3516    3.4653    1.4183 H   0  0  0  0  0  0  0  0  0  0  0  0
    1.8933    1.5143   -0.8838 C   0  0  2  0  0  0  0  0  0  0  0  0
    0.7542    2.1554   -0.0683 C   0  0  2  0  0  0  0  0  0  0  0  0
   -1.3020    3.3487   -1.6291 H   0  0  0  0  0  0  0  0  0  0  0  0
    0.8114    1.8197    0.9714 H   0  0  0  0  0  0  0  0  0  0  0  0
    4.3735   -0.8679   -0.4459 H   0  0  0  0  0  0  0  0  0  0  0  0
   -0.2073    2.3065   -2.5937 H   0  0  0  0  0  0  0  0  0  0  0  0
    5.1849   -1.8714    1.6454 H   0  0  0  0  0  0  0  0  0  0  0  0
    3.4538   -0.1322   -2.2851 H   0  0  0  0  0  0  0  0  0  0  0  0
   -1.0108    2.3224   -1.8610 C   0  0  0  0  0  0  0  0  0  0  0  0
   -3.5142    3.4443    2.5821 H   0  0  0  0  0  0  0  0  0  0  0  0
   -2.0367    2.6529    1.2186 C   0  0  0  0  0  0  0  0  0  0  0  0
    3.6654   -1.0420    0.3546 C   0  0  0  0  0  0  0  0  0  0  0  0
    4.1338   -1.6165    1.5599 C   0  0  0  0  0  0  0  0  0  0  0  0
   -0.5711    1.6367   -0.5921 N   0  0  0  0  0  0  0  0  0  0  0  0
    1.7726   -0.0260   -0.9612 N   0  0  0  0  0  0  0  0  0  0  0  0
    1.8591   -0.1057   -3.0686 H   0  0  0  0  0  0  0  0  0  0  0  0
   -3.2926    2.6481    1.8791 C   0  0  0  0  0  0  0  0  0  0  0  0
    2.4264   -0.4978   -2.2271 C   0  0  0  0  0  0  0  0  0  0  0  0
    2.3350   -0.6956    0.2161 C   0  0  0  0  0  0  0  0  0  0  0  0
   -1.8618    1.7833   -2.2713 H   0  0  0  0  0  0  0  0  0  0  0  0
   -1.7224    1.6579    0.3172 C   0  0  0  0  0  0  0  0  0  0  0  0
    3.6345   -2.2817    3.5386 H   0  0  0  0  0  0  0  0  0  0  0  0
    3.2750   -1.8454    2.6117 C   0  0  0  0  0  0  0  0  0  0  0  0
    1.4302   -0.9807    1.2553 C   0  0  0  0  0  0  0  0  0  0  0  0
    2.4152   -1.5859   -2.2444 H   0  0  0  0  0  0  0  0  0  0  0  0
    1.8942   -1.5475    2.4777 C   0  0  0  0  0  0  0  0  0  0  0  0
   -4.2378    1.6852    1.6044 C   0  0  0  0  0  0  0  0  0  0  0  0
   -0.2698   -0.3982   -0.9658 Fe  0  2  0  0  0  0  0  0  0  0  0  0
    0.0921   -0.7734    1.0164 N   0  0  0  0  0  0  0  0  0  0  0  0
   -5.2143    1.7138    2.0780 H   0  0  0  0  0  0  0  0  0  0  0  0
   -2.6441    0.6024    0.1057 C   0  0  0  0  0  0  0  0  0  0  0  0
    0.9324   -1.8331    3.4759 C   0  0  0  0  0  0  0  0  0  0  0  0
    1.2519   -2.2596    4.4225 H   0  0  0  0  0  0  0  0  0  0  0  0
   -3.9325    0.6270    0.7071 C   0  0  0  0  0  0  0  0  0  0  0  0
   -0.7852   -1.0861    1.9711 C   0  0  0  0  0  0  0  0  0  0  0  0
   -0.4029   -1.5931    3.2231 C   0  0  0  0  0  0  0  0  0  0  0  0
   -2.2296   -0.4769   -0.6382 N   0  0  0  0  0  0  0  0  0  0  0  0
   -1.8318   -0.9524    1.7423 H   0  0  0  0  0  0  0  0  0  0  0  0
   -1.1687   -1.8168    3.9571 H   0  0  0  0  0  0  0  0  0  0  0  0
   -4.8193   -0.4357    0.3927 C   0  0  0  0  0  0  0  0  0  0  0  0
   -3.0788   -1.4628   -0.9166 C   0  0  0  0  0  0  0  0  0  0  0  0
   -5.8198   -0.4387    0.8161 H   0  0  0  0  0  0  0  0  0  0  0  0
   -2.6924   -2.2891   -1.5004 H   0  0  0  0  0  0  0  0  0  0  0  0
   -4.4034   -1.4567   -0.4378 C   0  0  0  0  0  0  0  0  0  0  0  0
   -5.0613   -2.2773   -0.7015 H   0  0  0  0  0  0  0  0  0  0  0  0
   -0.4119   -0.1578   -2.6833 O   0  0  0  0  0  0  0  0  0  0  0  0
   -0.4606   -0.9938   -3.1887 H   0  0  0  0  0  0  0  0  0  0  0  0
    0.0147   -2.8451   -1.2727 Br  0  0  0  0  0  0  0  0  0  0  0  0
  1  4  1  0  0  0  0
  3  5  1  0  0  0  0
  4  6  1  0  0  0  0
  5 11  1  0  0  0  0
  5  2  1  0  0  0  0
  5  4  1  0  0  0  0
  7  9  1  0  0  0  0
  9 16  1  0  0  0  0
  9  4  1  0  0  0  0
  9  8  1  0  0  0  0
 10 11  1  0  0  0  0
 11 12  1  0  0  0  0
 15 13  1  6  0  0  0
 15 11  1  0  0  0  0
 15 16  1  0  0  0  0
 16 18  1  1  0  0  0
 19 26  1  0  0  0  0
 20 23  1  0  0  0  0
 22 32  1  0  0  0  0
 23 17  1  0  0  0  0
 23 28  1  0  0  0  0
 25 14  1  0  0  0  0
 25 31  1  0  0  0  0
 26 27  1  0  0  0  0
 27 21  1  0  0  0  0
 27 37  2  0  0  0  0
 28 16  1  0  0  0  0
 28 35  1  0  0  0  0
 28 42  9  0  0  0  0
 29 15  1  0  0  0  0
 29 33  1  0  0  0  0
 29 42  9  0  0  0  0
 30 32  1  0  0  0  0
 31 24  1  0  0  0  0
 32 29  1  0  0  0  0
 33 26  2  0  0  0  0
 33 38  1  0  0  0  0
 34 23  1  0  0  0  0
 35 25  2  0  0  0  0
 37 36  1  0  0  0  0
 38 40  1  0  0  0  0
 39 32  1  0  0  0  0
 40 37  1  0  0  0  0
 40 46  2  0  0  0  0
 41 31  2  0  0  0  0
 41 44  1  0  0  0  0
 43 38  2  0  0  0  0
 43 49  1  0  0  0  0
 43 42  9  0  0  0  0
 45 35  1  0  0  0  0
 45 48  1  0  0  0  0
 46 47  1  0  0  0  0
 48 41  1  0  0  0  0
 49 50  2  0  0  0  0
 50 46  1  0  0  0  0
 50 53  1  0  0  0  0
 51 45  2  0  0  0  0
 51 42  9  0  0  0  0
 52 49  1  0  0  0  0
 54 48  2  0  0  0  0
 54 56  1  0  0  0  0
 55 51  1  0  0  0  0
 55 58  2  0  0  0  0
 57 55  1  0  0  0  0
 58 54  1  0  0  0  0
 59 58  1  0  0  0  0
 60 42  1  0  0  0  0
 61 60  1  0  0  0  0
 62 42  1  0  0  0  0
M  CHG  1  42   2
M  END
$$$$
