
 OpenBabel02052520053D

 64 71  0  0  0  0  0  0  0  0999 V2000
    1.2077    5.6399    0.2780 H   0  0  0  0  0  0  0  0  0  0  0  0
    3.5037    4.6223   -0.0454 H   0  0  0  0  0  0  0  0  0  0  0  0
    2.5162    4.4817   -1.4953 H   0  0  0  0  0  0  0  0  0  0  0  0
    1.3627    4.5580    0.3353 C   0  0  0  0  0  0  0  0  0  0  0  0
    2.6068    4.1461   -0.4536 C   0  0  0  0  0  0  0  0  0  0  0  0
    1.4926    4.3118    1.3982 H   0  0  0  0  0  0  0  0  0  0  0  0
    0.0008    4.1426   -1.2711 H   0  0  0  0  0  0  0  0  0  0  0  0
   -0.7716    4.1814    0.3007 H   0  0  0  0  0  0  0  0  0  0  0  0
    0.1235    3.8445   -0.2242 C   0  0  0  0  0  0  0  0  0  0  0  0
    3.6561    2.3232   -0.9883 H   0  0  0  0  0  0  0  0  0  0  0  0
    2.7805    2.6218   -0.4034 C   0  0  0  0  0  0  0  0  0  0  0  0
    2.9677    2.3228    0.6337 H   0  0  0  0  0  0  0  0  0  0  0  0
    1.3750    2.1695   -1.9728 H   0  0  0  0  0  0  0  0  0  0  0  0
   -2.0839    3.2216    1.2597 H   0  0  0  0  0  0  0  0  0  0  0  0
    1.5295    1.8943   -0.9258 C   0  0  2  0  0  0  0  0  0  0  0  0
    0.2717    2.3068   -0.1424 C   0  0  2  0  0  0  0  0  0  0  0  0
   -1.9452    3.0739   -1.7188 H   0  0  0  0  0  0  0  0  0  0  0  0
    0.3732    1.9989    0.9026 H   0  0  0  0  0  0  0  0  0  0  0  0
    4.3982    0.0450   -0.4623 H   0  0  0  0  0  0  0  0  0  0  0  0
   -0.6706    2.2577   -2.6820 H   0  0  0  0  0  0  0  0  0  0  0  0
    5.3991   -0.7805    1.6236 H   0  0  0  0  0  0  0  0  0  0  0  0
    3.3643    0.5426   -2.3122 H   0  0  0  0  0  0  0  0  0  0  0  0
   -1.4657    2.1219   -1.9532 C   0  0  0  0  0  0  0  0  0  0  0  0
   -4.2073    2.7929    2.4104 H   0  0  0  0  0  0  0  0  0  0  0  0
   -2.5840    2.2803    1.0796 C   0  0  0  0  0  0  0  0  0  0  0  0
    3.7402   -0.2641    0.3402 C   0  0  0  0  0  0  0  0  0  0  0  0
    4.3180   -0.7337    1.5440 C   0  0  0  0  0  0  0  0  0  0  0  0
   -0.9090    1.5168   -0.6875 N   0  0  0  0  0  0  0  0  0  0  0  0
    1.6901    0.3636   -0.9796 N   0  0  0  0  0  0  0  0  0  0  0  0
    1.7829    0.2524   -3.0819 H   0  0  0  0  0  0  0  0  0  0  0  0
   -3.8203    2.0372    1.7349 C   0  0  0  0  0  0  0  0  0  0  0  0
    2.4198   -0.0005   -2.2372 C   0  0  0  0  0  0  0  0  0  0  0  0
    2.3679   -0.1805    0.2046 C   0  0  0  0  0  0  0  0  0  0  0  0
   -2.1948    1.4333   -2.3729 H   0  0  0  0  0  0  0  0  0  0  0  0
   -2.0590    1.3451    0.2140 C   0  0  0  0  0  0  0  0  0  0  0  0
    3.9687   -1.4583    3.5337 H   0  0  0  0  0  0  0  0  0  0  0  0
    3.5260   -1.1117    2.6049 C   0  0  0  0  0  0  0  0  0  0  0  0
    1.5379   -0.6241    1.2578 C   0  0  0  0  0  0  0  0  0  0  0  0
    2.6151   -1.0723   -2.2315 H   0  0  0  0  0  0  0  0  0  0  0  0
    2.1133   -1.0765    2.4824 C   0  0  0  0  0  0  0  0  0  0  0  0
   -4.5456    0.8924    1.4924 C   0  0  0  0  0  0  0  0  0  0  0  0
   -0.2243   -0.3914   -0.9942 Fe  0  2  0  0  0  0  0  0  0  0  0  0
    0.1840   -0.6551    1.0379 N   0  0  0  0  0  0  0  0  0  0  0  0
   -5.5114    0.7351    1.9626 H   0  0  0  0  0  0  0  0  0  0  0  0
   -2.7486    0.1209    0.0334 C   0  0  0  0  0  0  0  0  0  0  0  0
    1.2297   -1.5038    3.5043 C   0  0  0  0  0  0  0  0  0  0  0  0
    1.6330   -1.8430    4.4543 H   0  0  0  0  0  0  0  0  0  0  0  0
   -4.0197   -0.1066    0.6302 C   0  0  0  0  0  0  0  0  0  0  0  0
   -0.6081   -1.0882    2.0135 C   0  0  0  0  0  0  0  0  0  0  0  0
   -0.1281   -1.5001    3.2716 C   0  0  0  0  0  0  0  0  0  0  0  0
   -2.1134   -0.8606   -0.6831 N   0  0  0  0  0  0  0  0  0  0  0  0
   -1.6685   -1.1249    1.8044 H   0  0  0  0  0  0  0  0  0  0  0  0
   -0.8345   -1.8281    4.0260 H   0  0  0  0  0  0  0  0  0  0  0  0
   -4.6596   -1.3401    0.3456 C   0  0  0  0  0  0  0  0  0  0  0  0
   -2.7317   -2.0110   -0.9287 C   0  0  0  0  0  0  0  0  0  0  0  0
   -5.6415   -1.5415    0.7644 H   0  0  0  0  0  0  0  0  0  0  0  0
   -2.1779   -2.7467   -1.4999 H   0  0  0  0  0  0  0  0  0  0  0  0
   -4.0291   -2.2762   -0.4508 C   0  0  0  0  0  0  0  0  0  0  0  0
   -4.4986   -3.2240   -0.6891 H   0  0  0  0  0  0  0  0  0  0  0  0
   -0.4013   -0.1668   -2.7415 O   0  0  0  0  0  0  0  0  0  0  0  0
   -0.3833   -1.0292   -3.1965 H   0  0  0  0  0  0  0  0  0  0  0  0
    0.3587   -2.1746   -1.2152 N   0  0  0  0  0  0  0  0  0  0  0  0
    0.8153   -3.2729   -1.1948 C   0  0  0  0  0  0  0  0  0  0  0  0
    1.4277   -4.7623   -1.1816 S   0  0  0  0  0  0  0  0  0  0  0  0
  1  4  1  0  0  0  0
  3  5  1  0  0  0  0
  4  6  1  0  0  0  0
  5 11  1  0  0  0  0
  5  2  1  0  0  0  0
  5  4  1  0  0  0  0
  7  9  1  0  0  0  0
  9 16  1  0  0  0  0
  9  8  1  0  0  0  0
  9  4  1  0  0  0  0
 10 11  1  0  0  0  0
 11 12  1  0  0  0  0
 15 13  1  6  0  0  0
 15 11  1  0  0  0  0
 15 16  1  0  0  0  0
 16 18  1  1  0  0  0
 19 26  1  0  0  0  0
 20 23  1  0  0  0  0
 22 32  1  0  0  0  0
 23 17  1  0  0  0  0
 23 28  1  0  0  0  0
 25 14  1  0  0  0  0
 25 31  1  0  0  0  0
 26 27  1  0  0  0  0
 27 21  1  0  0  0  0
 27 37  2  0  0  0  0
 28 16  1  0  0  0  0
 28 35  1  0  0  0  0
 28 42  9  0  0  0  0
 29 15  1  0  0  0  0
 29 33  1  0  0  0  0
 29 42  9  0  0  0  0
 30 32  1  0  0  0  0
 31 24  1  0  0  0  0
 32 39  1  0  0  0  0
 32 29  1  0  0  0  0
 33 26  2  0  0  0  0
 33 38  1  0  0  0  0
 34 23  1  0  0  0  0
 35 25  2  0  0  0  0
 37 36  1  0  0  0  0
 38 40  1  0  0  0  0
 40 37  1  0  0  0  0
 40 46  2  0  0  0  0
 41 31  2  0  0  0  0
 41 44  1  0  0  0  0
 43 38  2  0  0  0  0
 43 49  1  0  0  0  0
 43 42  9  0  0  0  0
 45 35  1  0  0  0  0
 45 48  1  0  0  0  0
 46 47  1  0  0  0  0
 48 41  1  0  0  0  0
 49 50  2  0  0  0  0
 50 46  1  0  0  0  0
 50 53  1  0  0  0  0
 51 45  2  0  0  0  0
 51 42  9  0  0  0  0
 52 49  1  0  0  0  0
 54 48  2  0  0  0  0
 54 56  1  0  0  0  0
 55 51  1  0  0  0  0
 55 58  2  0  0  0  0
 57 55  1  0  0  0  0
 58 54  1  0  0  0  0
 59 58  1  0  0  0  0
 60 42  1  0  0  0  0
 61 60  1  0  0  0  0
 62 63  2  0  0  0  0
 62 42  1  0  0  0  0
 63 64  2  0  0  0  0
M  CHG  1  42   2
M  END
$$$$
