
 OpenBabel02052520053D

 64 71  0  0  0  0  0  0  0  0999 V2000
    2.6309    0.8387    4.8532 H   0  0  0  0  0  0  0  0  0  0  0  0
    4.4563    1.5367    3.2454 H   0  0  0  0  0  0  0  0  0  0  0  0
    3.0755    2.6250    3.1717 H   0  0  0  0  0  0  0  0  0  0  0  0
    2.5623    0.6124    3.7846 C   0  0  0  0  0  0  0  0  0  0  0  0
    3.3999    1.5960    2.9659 C   0  0  0  0  0  0  0  0  0  0  0  0
    2.9444   -0.4090    3.6515 H   0  0  0  0  0  0  0  0  0  0  0  0
    0.7357    1.7070    3.5383 H   0  0  0  0  0  0  0  0  0  0  0  0
    0.4825    0.0269    3.9689 H   0  0  0  0  0  0  0  0  0  0  0  0
    1.0917    0.6880    3.3504 C   0  0  0  0  0  0  0  0  0  0  0  0
    3.8431    1.9986    0.8796 H   0  0  0  0  0  0  0  0  0  0  0  0
    3.2601    1.2846    1.4696 C   0  0  0  0  0  0  0  0  0  0  0  0
    3.6771    0.2902    1.2795 H   0  0  0  0  0  0  0  0  0  0  0  0
    1.4039    2.3281    1.1671 H   0  0  0  0  0  0  0  0  0  0  0  0
   -0.7335   -1.3696    3.5246 H   0  0  0  0  0  0  0  0  0  0  0  0
    1.7889    1.3150    1.0178 C   0  0  2  0  0  0  0  0  0  0  0  0
    0.9210    0.3503    1.8508 C   0  0  2  0  0  0  0  0  0  0  0  0
   -1.4140    1.5328    2.9380 H   0  0  0  0  0  0  0  0  0  0  0  0
    1.2389   -0.6798    1.6643 H   0  0  0  0  0  0  0  0  0  0  0  0
    4.2575    1.0485   -1.3468 H   0  0  0  0  0  0  0  0  0  0  0  0
   -0.6427    2.5433    1.6817 H   0  0  0  0  0  0  0  0  0  0  0  0
    5.5342   -0.9213   -2.0631 H   0  0  0  0  0  0  0  0  0  0  0  0
    2.9214    2.6855   -1.0512 H   0  0  0  0  0  0  0  0  0  0  0  0
   -1.2294    1.6448    1.8678 C   0  0  0  0  0  0  0  0  0  0  0  0
   -2.5444   -3.0020    3.8128 H   0  0  0  0  0  0  0  0  0  0  0  0
   -1.4632   -1.4736    2.7335 C   0  0  0  0  0  0  0  0  0  0  0  0
    3.7560    0.0891   -1.3694 C   0  0  0  0  0  0  0  0  0  0  0  0
    4.4950   -1.0462   -1.7778 C   0  0  0  0  0  0  0  0  0  0  0  0
   -0.5062    0.4355    1.3358 N   0  0  0  0  0  0  0  0  0  0  0  0
    1.6079    1.0782   -0.4937 N   0  0  0  0  0  0  0  0  0  0  0  0
    1.2057    3.1079   -0.9283 H   0  0  0  0  0  0  0  0  0  0  0  0
   -2.5183   -2.4092    2.9044 C   0  0  0  0  0  0  0  0  0  0  0  0
    1.9050    2.3375   -1.2450 C   0  0  0  0  0  0  0  0  0  0  0  0
    2.4329   -0.0323   -0.9904 C   0  0  0  0  0  0  0  0  0  0  0  0
   -2.1838    1.7311    1.3515 H   0  0  0  0  0  0  0  0  0  0  0  0
   -1.3979   -0.7035    1.5925 C   0  0  0  0  0  0  0  0  0  0  0  0
    4.4779   -3.1660   -2.1139 H   0  0  0  0  0  0  0  0  0  0  0  0
    3.9105   -2.2926   -1.8073 C   0  0  0  0  0  0  0  0  0  0  0  0
    1.8015   -1.2893   -1.0697 C   0  0  0  0  0  0  0  0  0  0  0  0
    1.7806    2.1350   -2.3084 H   0  0  0  0  0  0  0  0  0  0  0  0
    2.5420   -2.4414   -1.4661 C   0  0  0  0  0  0  0  0  0  0  0  0
   -3.5168   -2.5423    1.9656 C   0  0  0  0  0  0  0  0  0  0  0  0
   -0.3421    0.4885   -0.7705 Fe  0  2  0  0  0  0  0  0  0  0  0  0
    0.4547   -1.3456   -0.8148 N   0  0  0  0  0  0  0  0  0  0  0  0
   -4.3407   -3.2313    2.1245 H   0  0  0  0  0  0  0  0  0  0  0  0
   -2.3693   -0.8985    0.5784 C   0  0  0  0  0  0  0  0  0  0  0  0
    1.8493   -3.6737   -1.5393 C   0  0  0  0  0  0  0  0  0  0  0  0
    2.3840   -4.5736   -1.8294 H   0  0  0  0  0  0  0  0  0  0  0  0
   -3.4616   -1.7889    0.7623 C   0  0  0  0  0  0  0  0  0  0  0  0
   -0.1672   -2.5162   -0.9338 C   0  0  0  0  0  0  0  0  0  0  0  0
    0.4981   -3.7088   -1.2668 C   0  0  0  0  0  0  0  0  0  0  0  0
   -2.1699   -0.2546   -0.6150 N   0  0  0  0  0  0  0  0  0  0  0  0
   -1.2353   -2.5258   -0.7753 H   0  0  0  0  0  0  0  0  0  0  0  0
   -0.0698   -4.6301   -1.3303 H   0  0  0  0  0  0  0  0  0  0  0  0
   -4.3983   -1.8955   -0.2991 C   0  0  0  0  0  0  0  0  0  0  0  0
   -3.0459   -0.3894   -1.6031 C   0  0  0  0  0  0  0  0  0  0  0  0
   -5.2575   -2.5511   -0.1890 H   0  0  0  0  0  0  0  0  0  0  0  0
   -2.8012    0.1092   -2.5332 H   0  0  0  0  0  0  0  0  0  0  0  0
   -4.2017   -1.1843   -1.4662 C   0  0  0  0  0  0  0  0  0  0  0  0
   -4.8976   -1.2538   -2.2948 H   0  0  0  0  0  0  0  0  0  0  0  0
   -0.1953    0.3479   -2.5381 O   0  0  0  0  0  0  0  0  0  0  0  0
   -0.4888    1.1581   -2.9925 H   0  0  0  0  0  0  0  0  0  0  0  0
   -1.0398    2.2290   -0.9050 N   0  0  0  0  0  0  0  0  0  0  0  0
   -1.6506    3.2195   -1.1515 C   0  0  0  0  0  0  0  0  0  0  0  0
   -2.4485    4.5823   -1.4662 S   0  0  0  0  0  0  0  0  0  0  0  0
  4  1  1  0  0  0  0
  5  3  1  0  0  0  0
  5  2  1  0  0  0  0
  5  4  1  0  0  0  0
  6  4  1  0  0  0  0
  9  7  1  0  0  0  0
  9  4  1  0  0  0  0
  9  8  1  0  0  0  0
 10 11  1  0  0  0  0
 11  5  1  0  0  0  0
 12 11  1  0  0  0  0
 15 13  1  1  0  0  0
 15 11  1  0  0  0  0
 15 16  1  0  0  0  0
 16 18  1  6  0  0  0
 16  9  1  0  0  0  0
 20 23  1  0  0  0  0
 21 27  1  0  0  0  0
 23 17  1  0  0  0  0
 25 31  1  0  0  0  0
 25 14  1  0  0  0  0
 26 19  1  0  0  0  0
 26 33  1  0  0  0  0
 27 26  2  0  0  0  0
 28 35  1  0  0  0  0
 28 16  1  0  0  0  0
 28 23  1  0  0  0  0
 28 42  9  0  0  0  0
 29 15  1  0  0  0  0
 29 42  9  0  0  0  0
 31 24  1  0  0  0  0
 32 22  1  0  0  0  0
 32 30  1  0  0  0  0
 32 29  1  0  0  0  0
 33 29  1  0  0  0  0
 34 23  1  0  0  0  0
 35 25  2  0  0  0  0
 36 37  1  0  0  0  0
 37 27  1  0  0  0  0
 37 40  2  0  0  0  0
 38 33  2  0  0  0  0
 38 43  1  0  0  0  0
 39 32  1  0  0  0  0
 40 38  1  0  0  0  0
 41 44  1  0  0  0  0
 41 31  2  0  0  0  0
 43 42  9  0  0  0  0
 45 48  1  0  0  0  0
 45 35  1  0  0  0  0
 46 40  1  0  0  0  0
 46 50  2  0  0  0  0
 47 46  1  0  0  0  0
 48 41  1  0  0  0  0
 49 43  2  0  0  0  0
 49 52  1  0  0  0  0
 50 49  1  0  0  0  0
 51 45  2  0  0  0  0
 51 42  9  0  0  0  0
 53 50  1  0  0  0  0
 54 56  1  0  0  0  0
 54 48  2  0  0  0  0
 55 58  2  0  0  0  0
 55 51  1  0  0  0  0
 57 55  1  0  0  0  0
 58 54  1  0  0  0  0
 59 58  1  0  0  0  0
 60 42  1  0  0  0  0
 61 60  1  0  0  0  0
 62 42  1  0  0  0  0
 63 62  2  0  0  0  0
 64 63  2  0  0  0  0
M  CHG  1  42   2
M  END
$$$$
