
 OpenBabel02052520053D

 62 68  0  0  0  0  0  0  0  0999 V2000
   -3.5660   -3.0308    3.2290 H   0  0  0  0  0  0  0  0  0  0  0  0
   -5.1773   -2.2022    1.4652 H   0  0  0  0  0  0  0  0  0  0  0  0
   -3.9620   -3.2614    0.7599 H   0  0  0  0  0  0  0  0  0  0  0  0
   -3.2882   -2.2250    2.5415 C   0  0  0  0  0  0  0  0  0  0  0  0
   -4.1076   -2.2908    1.2526 C   0  0  0  0  0  0  0  0  0  0  0  0
   -3.4807   -1.2787    3.0646 H   0  0  0  0  0  0  0  0  0  0  0  0
   -1.6513   -3.3523    1.7613 H   0  0  0  0  0  0  0  0  0  0  0  0
   -1.1768   -2.3135    3.0997 H   0  0  0  0  0  0  0  0  0  0  0  0
   -1.8039   -2.3622    2.2017 C   0  0  0  0  0  0  0  0  0  0  0  0
   -4.3000   -1.1570   -0.5827 H   0  0  0  0  0  0  0  0  0  0  0  0
   -3.6885   -1.1447    0.3241 C   0  0  0  0  0  0  0  0  0  0  0  0
   -3.8911   -0.2052    0.8471 H   0  0  0  0  0  0  0  0  0  0  0  0
   -2.0244   -2.0848   -0.6839 H   0  0  0  0  0  0  0  0  0  0  0  0
    0.1791   -0.4221    3.3184 H   0  0  0  0  0  0  0  0  0  0  0  0
   -2.1991   -1.1930   -0.0759 C   0  0  2  0  0  0  0  0  0  0  0  0
   -1.3075   -1.2771    1.2037 C   0  0  2  0  0  0  0  0  0  0  0  0
    0.5907   -3.5411    1.2920 H   0  0  0  0  0  0  0  0  0  0  0  0
   -1.3300   -0.2928    1.6804 H   0  0  0  0  0  0  0  0  0  0  0  0
   -4.1048    1.3995   -0.6246 H   0  0  0  0  0  0  0  0  0  0  0  0
   -0.3726   -3.3325   -0.2018 H   0  0  0  0  0  0  0  0  0  0  0  0
   -4.3278    3.6317    0.3591 H   0  0  0  0  0  0  0  0  0  0  0  0
   -3.5626    0.0328   -2.2338 H   0  0  0  0  0  0  0  0  0  0  0  0
    0.4388   -2.9295    0.3961 C   0  0  0  0  0  0  0  0  0  0  0  0
    2.2321    0.3488    4.4307 H   0  0  0  0  0  0  0  0  0  0  0  0
    1.0988   -0.3607    2.7482 C   0  0  0  0  0  0  0  0  0  0  0  0
   -3.2067    1.9047   -0.2929 C   0  0  0  0  0  0  0  0  0  0  0  0
   -3.3375    3.1999    0.2588 C   0  0  0  0  0  0  0  0  0  0  0  0
    0.1082   -1.5477    0.8451 N   0  0  0  0  0  0  0  0  0  0  0  0
   -1.7825   -0.0402   -0.9975 N   0  0  0  0  0  0  0  0  0  0  0  0
   -2.3112   -1.1280   -2.7439 H   0  0  0  0  0  0  0  0  0  0  0  0
    2.2747    0.0551    3.3870 C   0  0  0  0  0  0  0  0  0  0  0  0
   -2.4888   -0.1390   -2.3239 C   0  0  0  0  0  0  0  0  0  0  0  0
   -1.9688    1.2973   -0.4248 C   0  0  0  0  0  0  0  0  0  0  0  0
    1.3417   -2.9278   -0.2067 H   0  0  0  0  0  0  0  0  0  0  0  0
    1.1489   -0.8459    1.4289 C   0  0  0  0  0  0  0  0  0  0  0  0
   -2.3185    4.9099    1.0613 H   0  0  0  0  0  0  0  0  0  0  0  0
   -2.2248    3.9106    0.6468 C   0  0  0  0  0  0  0  0  0  0  0  0
   -0.8068    2.0363   -0.0774 C   0  0  2  0  0  3  0  0  0  0  0  0
   -2.0617    0.6148   -2.9875 H   0  0  0  0  0  0  0  0  0  0  0  0
   -0.9337    3.3558    0.4611 C   0  0  0  0  0  0  0  0  0  0  0  0
    3.4992    0.0268    2.7262 C   0  0  0  0  0  0  0  0  0  0  0  0
    0.3688   -0.2178   -1.6495 Fe  0  2  0  0  0  0  0  0  0  0  0  0
    0.4223    1.4940   -0.3379 N   0  0  0  0  0  2  0  0  0  0  0  0
    4.4089    0.3077    3.2491 H   0  0  0  0  0  0  0  0  0  0  0  0
    2.3745   -0.6891    0.6782 C   0  0  0  0  0  0  0  0  0  0  0  0
    0.2546    4.0761    0.7344 C   0  0  0  0  0  0  0  0  0  0  0  0
    0.1866    5.0785    1.1479 H   0  0  0  0  0  0  0  0  0  0  0  0
    3.5686   -0.3211    1.3464 C   0  0  0  0  0  0  0  0  0  0  0  0
    1.5116    2.2270   -0.1221 C   0  0  0  0  0  0  0  0  0  0  0  0
    1.4788    3.5161    0.4349 C   0  0  0  0  0  0  0  0  0  0  0  0
    2.3065   -0.7630   -0.6778 N   0  0  0  0  0  0  0  0  0  0  0  0
    2.4559    1.7856   -0.4179 H   0  0  0  0  0  0  0  0  0  0  0  0
    2.4050    4.0569    0.5938 H   0  0  0  0  0  0  0  0  0  0  0  0
    4.7522   -0.2273    0.5685 C   0  0  0  0  0  0  0  0  0  0  0  0
    3.4287   -0.6559   -1.3917 C   0  0  0  0  0  0  0  0  0  0  0  0
    5.6931    0.0265    1.0488 H   0  0  0  0  0  0  0  0  0  0  0  0
    3.3126   -0.7145   -2.4691 H   0  0  0  0  0  0  0  0  0  0  0  0
    4.6868   -0.4332   -0.7973 C   0  0  0  0  0  0  0  0  0  0  0  0
    5.5718   -0.3730   -1.4215 H   0  0  0  0  0  0  0  0  0  0  0  0
    0.7399    0.8685   -3.0340 O   0  0  0  0  0  0  0  0  0  0  0  0
    0.7490    0.5191   -3.9441 H   0  0  0  0  0  0  0  0  0  0  0  0
    0.1574   -2.2029   -2.6797 Cl  0  0  0  0  0  0  0  0  0  0  0  0
  3  5  1  0  0  0  0
  4  6  1  0  0  0  0
  4  1  1  0  0  0  0
  5  2  1  0  0  0  0
  5  4  1  0  0  0  0
  7  9  1  0  0  0  0
  9  4  1  0  0  0  0
  9  8  1  0  0  0  0
 10 11  1  0  0  0  0
 11 12  1  0  0  0  0
 11  5  1  0  0  0  0
 15 13  1  6  0  0  0
 15 11  1  0  0  0  0
 15 16  1  0  0  0  0
 16 18  1  1  0  0  0
 16  9  1  0  0  0  0
 19 26  1  0  0  0  0
 20 23  1  0  0  0  0
 23 28  1  0  0  0  0
 23 17  1  0  0  0  0
 25 14  1  0  0  0  0
 25 31  1  0  0  0  0
 26 27  1  0  0  0  0
 27 21  1  0  0  0  0
 27 37  2  0  0  0  0
 28 16  1  0  0  0  0
 28 35  1  0  0  0  0
 28 42  9  0  0  0  0
 29 33  1  0  0  0  0
 29 15  1  0  0  0  0
 29 42  9  0  0  0  0
 30 32  1  0  0  0  0
 31 24  1  0  0  0  0
 32 22  1  0  0  0  0
 32 29  1  0  0  0  0
 33 26  2  0  0  0  0
 34 23  1  0  0  0  0
 35 25  2  0  0  0  0
 37 36  1  0  0  0  0
 38 33  1  6  0  0  0
 38 40  1  0  0  0  0
 39 32  1  0  0  0  0
 40 37  1  0  0  0  0
 40 46  2  0  0  0  0
 41 44  1  0  0  0  0
 41 31  2  0  0  0  0
 43 49  1  0  0  0  0
 43 38  1  0  0  0  0
 45 48  1  0  0  0  0
 45 35  1  0  0  0  0
 46 47  1  0  0  0  0
 48 41  1  0  0  0  0
 49 50  2  0  0  0  0
 50 53  1  0  0  0  0
 50 46  1  0  0  0  0
 51 45  2  0  0  0  0
 51 42  9  0  0  0  0
 52 49  1  0  0  0  0
 54 56  1  0  0  0  0
 54 48  2  0  0  0  0
 55 58  2  0  0  0  0
 55 51  1  0  0  0  0
 57 55  1  0  0  0  0
 58 54  1  0  0  0  0
 59 58  1  0  0  0  0
 60 42  1  0  0  0  0
 61 60  1  0  0  0  0
 62 42  1  0  0  0  0
M  RAD  2  38   2  43   2
M  CHG  1  42   2
M  END
$$$$
