
 OpenBabel02052520053D

 62 69  0  0  0  0  0  0  0  0999 V2000
   -2.0949    4.5687   -2.0344 H   0  0  0  0  0  0  0  0  0  0  0  0
   -4.1949    3.4083   -1.2327 H   0  0  0  0  0  0  0  0  0  0  0  0
   -3.2128    3.9747    0.1129 H   0  0  0  0  0  0  0  0  0  0  0  0
   -2.0702    3.5354   -1.6746 C   0  0  0  0  0  0  0  0  0  0  0  0
   -3.2370    3.2639   -0.7238 C   0  0  0  0  0  0  0  0  0  0  0  0
   -2.1503    2.8903   -2.5602 H   0  0  0  0  0  0  0  0  0  0  0  0
   -0.6405    3.9907   -0.1310 H   0  0  0  0  0  0  0  0  0  0  0  0
    0.0892    3.5051   -1.6569 H   0  0  0  0  0  0  0  0  0  0  0  0
   -0.7279    3.2886   -0.9674 C   0  0  0  0  0  0  0  0  0  0  0  0
   -3.9780    1.6298    0.5047 H   0  0  0  0  0  0  0  0  0  0  0  0
   -3.1598    1.8251   -0.1959 C   0  0  0  0  0  0  0  0  0  0  0  0
   -3.2801    1.1294   -1.0338 H   0  0  0  0  0  0  0  0  0  0  0  0
   -1.7281    2.2394    1.3512 H   0  0  0  0  0  0  0  0  0  0  0  0
    1.8675    2.8982   -1.8407 H   0  0  0  0  0  0  0  0  0  0  0  0
   -1.8145    1.5599    0.4995 C   0  0  2  0  0  0  0  0  0  0  0  0
   -0.6227    1.8381   -0.4469 C   0  0  2  0  0  0  0  0  0  0  0  0
    1.3546    3.4755    0.7544 H   0  0  0  0  0  0  0  0  0  0  0  0
   -0.6533    1.1469   -1.2920 H   0  0  0  0  0  0  0  0  0  0  0  0
   -4.3635   -0.8041    1.1600 H   0  0  0  0  0  0  0  0  0  0  0  0
    0.2157    2.7930    1.9560 H   0  0  0  0  0  0  0  0  0  0  0  0
   -5.2904   -2.4821   -0.3757 H   0  0  0  0  0  0  0  0  0  0  0  0
   -3.3589    0.5279    2.5029 H   0  0  0  0  0  0  0  0  0  0  0  0
    1.0513    2.5768    1.2942 C   0  0  0  0  0  0  0  0  0  0  0  0
    4.0562    2.4021   -2.8288 H   0  0  0  0  0  0  0  0  0  0  0  0
    2.4070    2.0317   -1.4844 C   0  0  0  0  0  0  0  0  0  0  0  0
   -3.7064   -1.2509    0.4242 C   0  0  0  0  0  0  0  0  0  0  0  0
   -4.2435   -2.2123   -0.4663 C   0  0  0  0  0  0  0  0  0  0  0  0
    0.6708    1.5075    0.3006 N   0  0  0  0  0  0  0  0  0  0  0  0
   -1.7423    0.1603    1.1451 N   0  0  0  0  0  0  0  0  0  0  0  0
   -1.7337    0.8946    3.1237 H   0  0  0  0  0  0  0  0  0  0  0  0
    3.6827    1.7567   -2.0406 C   0  0  0  0  0  0  0  0  0  0  0  0
   -2.3180    0.1976    2.5267 C   0  0  0  0  0  0  0  0  0  0  0  0
   -2.3791   -0.8832    0.3331 C   0  0  0  0  0  0  0  0  0  0  0  0
    1.8824    2.2114    1.8933 H   0  0  0  0  0  0  0  0  0  0  0  0
    1.8897    1.2316   -0.4861 C   0  0  0  0  0  0  0  0  0  0  0  0
   -3.8769   -3.5149   -2.1322 H   0  0  0  0  0  0  0  0  0  0  0  0
   -3.4602   -2.7883   -1.4415 C   0  0  0  0  0  0  0  0  0  0  0  0
   -1.5474   -1.5078   -0.6152 C   0  0  0  0  0  0  0  0  0  0  0  0
   -2.2478   -0.8053    2.9480 H   0  0  0  0  0  0  0  0  0  0  0  0
   -2.0847   -2.4521   -1.5365 C   0  0  0  0  0  0  0  0  0  0  0  0
    4.4577    0.7183   -1.5732 C   0  0  0  0  0  0  0  0  0  0  0  0
    0.2434   -0.2959    1.2211 Fe  0  2  0  0  0  0  0  0  0  0  0  0
   -0.2099   -1.2013   -0.5879 N   0  0  0  0  0  0  0  0  0  0  0  0
    5.4462    0.5342   -1.9829 H   0  0  0  0  0  0  0  0  0  0  0  0
    2.6630    0.1352   -0.0267 C   0  0  0  0  0  0  0  0  0  0  0  0
   -1.1967   -3.0216   -2.4806 C   0  0  0  0  0  0  0  0  0  0  0  0
   -1.5709   -3.7408   -3.2036 H   0  0  0  0  0  0  0  0  0  0  0  0
    3.9607   -0.1280   -0.5476 C   0  0  0  0  0  0  0  0  0  0  0  0
    0.5963   -1.7659   -1.4858 C   0  0  0  0  0  0  0  0  0  0  0  0
    0.1364   -2.6644   -2.4636 C   0  0  0  0  0  0  0  0  0  0  0  0
    2.1030   -0.7120    0.8918 N   0  0  0  0  0  0  0  0  0  0  0  0
    1.6462   -1.5144   -1.4360 H   0  0  0  0  0  0  0  0  0  0  0  0
    0.8442   -3.0819   -3.1707 H   0  0  0  0  0  0  0  0  0  0  0  0
    4.6606   -1.2454   -0.0189 C   0  0  0  0  0  0  0  0  0  0  0  0
    2.7569   -1.7691    1.3576 C   0  0  0  0  0  0  0  0  0  0  0  0
    5.6612   -1.4641   -0.3815 H   0  0  0  0  0  0  0  0  0  0  0  0
    2.2098   -2.3992    2.0502 H   0  0  0  0  0  0  0  0  0  0  0  0
    4.0697   -2.0526    0.9345 C   0  0  0  0  0  0  0  0  0  0  0  0
    4.5852   -2.9132    1.3459 H   0  0  0  0  0  0  0  0  0  0  0  0
    0.5157    0.4460    2.7713 O   0  0  0  0  0  0  0  0  0  0  0  0
    0.4743   -0.2574    3.4516 H   0  0  0  0  0  0  0  0  0  0  0  0
   -0.0831   -1.8556    1.9786 F   0  0  0  0  0  0  0  0  0  0  0  0
  1  4  1  0  0  0  0
  2  5  1  0  0  0  0
  4  9  1  0  0  0  0
  4  5  1  0  0  0  0
  5 11  1  0  0  0  0
  5  3  1  0  0  0  0
  6  4  1  0  0  0  0
  8  9  1  0  0  0  0
  9 16  1  0  0  0  0
  9  7  1  0  0  0  0
 11 15  1  0  0  0  0
 11 10  1  0  0  0  0
 12 11  1  0  0  0  0
 14 25  1  0  0  0  0
 15 29  1  0  0  0  0
 15 13  1  1  0  0  0
 16 18  1  6  0  0  0
 16 28  1  0  0  0  0
 16 15  1  0  0  0  0
 17 23  1  0  0  0  0
 22 32  1  0  0  0  0
 23 34  1  0  0  0  0
 23 20  1  0  0  0  0
 24 31  1  0  0  0  0
 25 35  1  0  0  0  0
 26 19  1  0  0  0  0
 27 21  1  0  0  0  0
 27 26  2  0  0  0  0
 28 23  1  0  0  0  0
 28 42  9  0  0  0  0
 29 32  1  0  0  0  0
 29 42  9  0  0  0  0
 31 41  1  0  0  0  0
 31 25  2  0  0  0  0
 32 39  1  0  0  0  0
 32 30  1  0  0  0  0
 33 26  1  0  0  0  0
 33 29  1  0  0  0  0
 35 45  2  0  0  0  0
 35 28  1  0  0  0  0
 36 37  1  0  0  0  0
 37 27  1  0  0  0  0
 38 43  1  0  0  0  0
 38 33  2  0  0  0  0
 40 37  2  0  0  0  0
 40 38  1  0  0  0  0
 41 48  2  0  0  0  0
 42 62  1  0  0  0  0
 42 60  1  0  0  0  0
 43 42  9  0  0  0  0
 44 41  1  0  0  0  0
 45 51  1  0  0  0  0
 46 50  2  0  0  0  0
 46 40  1  0  0  0  0
 47 46  1  0  0  0  0
 48 45  1  0  0  0  0
 48 54  1  0  0  0  0
 49 52  1  0  0  0  0
 49 43  2  0  0  0  0
 50 49  1  0  0  0  0
 51 55  2  0  0  0  0
 51 42  9  0  0  0  0
 53 50  1  0  0  0  0
 54 58  2  0  0  0  0
 55 57  1  0  0  0  0
 56 54  1  0  0  0  0
 58 59  1  0  0  0  0
 58 55  1  0  0  0  0
 60 61  1  0  0  0  0
M  CHG  1  42   2
M  END
$$$$
