
 OpenBabel02052520053D

 54 57  0  0  0  0  0  0  0  0999 V2000
   -0.0036   -0.0001   -0.0001 Fe  0  2  0  0  0  0  0  0  0  0  0  0
   -2.6167    3.5293    1.1589 H   0  0  0  0  0  0  0  0  0  0  0  0
   -2.3030    1.8578    2.8083 H   0  0  0  0  0  0  0  0  0  0  0  0
   -0.0082    1.7299    3.5849 H   0  0  0  0  0  0  0  0  0  0  0  0
   -0.9048    3.4944    1.4529 H   0  0  0  0  0  0  0  0  0  0  0  0
   -1.7215    2.9126    1.0170 C   0  0  0  0  0  0  0  0  0  0  0  0
    0.7654    2.1189    2.0278 H   0  0  0  0  0  0  0  0  0  0  0  0
   -1.9689    1.6194    1.7896 C   0  0  0  0  0  0  0  0  0  0  0  0
    0.3358    1.3204    2.6275 C   0  0  0  0  0  0  0  0  0  0  0  0
   -1.2596   -0.3174    3.7355 H   0  0  0  0  0  0  0  0  0  0  0  0
    0.9523    3.2159    0.3641 H   0  0  0  0  0  0  0  0  0  0  0  0
   -2.7774    1.0592    1.3051 H   0  0  0  0  0  0  0  0  0  0  0  0
   -1.5931    3.7103   -0.9883 H   0  0  0  0  0  0  0  0  0  0  0  0
    1.1182    0.5838    2.8086 H   0  0  0  0  0  0  0  0  0  0  0  0
   -0.8021    0.6790    1.9011 N   0  0  2  0  0  0  0  0  0  0  0  0
    0.7675    3.8583   -1.2782 H   0  0  0  0  0  0  0  0  0  0  0  0
   -1.5544    2.7316   -0.4910 C   0  0  0  0  0  0  0  0  0  0  0  0
   -1.2511   -0.5347    2.6605 C   0  0  0  0  0  0  0  0  0  0  0  0
   -2.2819   -0.7477    2.3705 H   0  0  0  0  0  0  0  0  0  0  0  0
    0.8758    2.9411   -0.6860 C   0  0  0  0  0  0  0  0  0  0  0  0
   -2.4001    2.1473   -0.8652 H   0  0  0  0  0  0  0  0  0  0  0  0
    0.6702   -1.5211    2.6991 H   0  0  0  0  0  0  0  0  0  0  0  0
   -0.2929    2.0413   -0.9130 N   0  0  1  0  0  0  0  0  0  0  0  0
    1.7908    2.4269   -0.9773 H   0  0  0  0  0  0  0  0  0  0  0  0
   -0.3529   -1.7264    2.3754 C   0  0  0  0  0  0  0  0  0  0  0  0
   -0.7017   -2.6010    2.9400 H   0  0  0  0  0  0  0  0  0  0  0  0
   -0.6901    2.6045   -2.9397 H   0  0  0  0  0  0  0  0  0  0  0  0
   -0.3454    1.7281   -2.3753 C   0  0  0  0  0  0  0  0  0  0  0  0
   -2.4105   -2.1353    0.8664 H   0  0  0  0  0  0  0  0  0  0  0  0
   -0.3028   -2.0399    0.9131 N   0  0  1  0  0  0  0  0  0  0  0  0
   -2.2793    0.7591   -2.3696 H   0  0  0  0  0  0  0  0  0  0  0  0
    0.6765    1.5177   -2.6996 H   0  0  0  0  0  0  0  0  0  0  0  0
    1.7790   -2.4360    0.9763 H   0  0  0  0  0  0  0  0  0  0  0  0
   -1.2497    0.5410   -2.6600 C   0  0  0  0  0  0  0  0  0  0  0  0
   -1.5680   -2.7238    0.4917 C   0  0  0  0  0  0  0  0  0  0  0  0
   -2.7834   -1.0451   -1.3038 H   0  0  0  0  0  0  0  0  0  0  0  0
   -1.6114   -3.7023    0.9890 H   0  0  0  0  0  0  0  0  0  0  0  0
    0.8612   -2.9456    0.6855 C   0  0  0  0  0  0  0  0  0  0  0  0
    0.7486   -3.8622    1.2778 H   0  0  0  0  0  0  0  0  0  0  0  0
   -0.8065   -0.6750   -1.9007 N   0  0  2  0  0  0  0  0  0  0  0  0
   -1.2597    0.3236   -3.7350 H   0  0  0  0  0  0  0  0  0  0  0  0
   -1.9781   -1.6094   -1.7886 C   0  0  0  0  0  0  0  0  0  0  0  0
    1.1139   -0.5896   -2.8089 H   0  0  0  0  0  0  0  0  0  0  0  0
   -1.7369   -2.9039   -1.0162 C   0  0  0  0  0  0  0  0  0  0  0  0
    0.9358   -3.2209   -0.3646 H   0  0  0  0  0  0  0  0  0  0  0  0
   -2.6353   -3.5160   -1.1576 H   0  0  0  0  0  0  0  0  0  0  0  0
    0.3277   -1.3222   -2.6276 C   0  0  0  0  0  0  0  0  0  0  0  0
   -2.3139   -1.8460   -2.8073 H   0  0  0  0  0  0  0  0  0  0  0  0
    0.7535   -2.1229   -2.0282 H   0  0  0  0  0  0  0  0  0  0  0  0
   -0.9234   -3.4899   -1.4525 H   0  0  0  0  0  0  0  0  0  0  0  0
   -0.0186   -1.7299   -3.5849 H   0  0  0  0  0  0  0  0  0  0  0  0
    1.8385   -0.0047   -0.0004 N   0  0  0  0  0  0  0  0  0  0  0  0
    3.0513   -0.0076   -0.0006 C   0  0  0  0  0  0  0  0  0  0  0  0
    4.6253   -0.0112   -0.0008 S   0  0  0  0  0  0  0  0  0  0  0  0
  6  2  1  0  0  0  0
  6  5  1  0  0  0  0
  6  8  1  0  0  0  0
  7  9  1  0  0  0  0
  8 15  1  0  0  0  0
  8  3  1  0  0  0  0
  9 14  1  0  0  0  0
  9  4  1  0  0  0  0
 12  8  1  0  0  0  0
 13 17  1  0  0  0  0
 15  9  1  1  0  0  0
 15 18  1  0  0  0  0
 15  1  9  0  0  0  0
 16 20  1  0  0  0  0
 17  6  1  0  0  0  0
 18 10  1  0  0  0  0
 19 18  1  0  0  0  0
 20 11  1  0  0  0  0
 21 17  1  0  0  0  0
 23 20  1  1  0  0  0
 23 17  1  0  0  0  0
 23  1  9  0  0  0  0
 24 20  1  0  0  0  0
 25 18  1  0  0  0  0
 25 22  1  0  0  0  0
 25 26  1  0  0  0  0
 27 28  1  0  0  0  0
 28 23  1  0  0  0  0
 30 38  1  6  0  0  0
 30 25  1  0  0  0  0
 30  1  9  0  0  0  0
 32 28  1  0  0  0  0
 34 28  1  0  0  0  0
 34 31  1  0  0  0  0
 34 40  1  0  0  0  0
 35 29  1  0  0  0  0
 35 30  1  0  0  0  0
 35 37  1  0  0  0  0
 38 33  1  0  0  0  0
 38 39  1  0  0  0  0
 40 47  1  6  0  0  0
 40 42  1  0  0  0  0
 40  1  9  0  0  0  0
 41 34  1  0  0  0  0
 42 36  1  0  0  0  0
 42 44  1  0  0  0  0
 43 47  1  0  0  0  0
 44 35  1  0  0  0  0
 45 38  1  0  0  0  0
 46 44  1  0  0  0  0
 47 49  1  0  0  0  0
 48 42  1  0  0  0  0
 50 44  1  0  0  0  0
 51 47  1  0  0  0  0
 52  1  1  0  0  0  0
 53 52  2  0  0  0  0
 54 53  2  0  0  0  0
M  CHG  1   1   2
M  END
$$$$
