
 OpenBabel02052520053D

 52 55  0  0  0  0  0  0  0  0999 V2000
   -0.0000    0.0000    0.1131 Fe  0  2  0  0  0  0  0  0  0  0  0  0
   -3.3756   -1.1604   -2.6413 H   0  0  0  0  0  0  0  0  0  0  0  0
   -1.7272   -2.8238   -2.2353 H   0  0  0  0  0  0  0  0  0  0  0  0
   -1.7663   -3.5729    0.0624 H   0  0  0  0  0  0  0  0  0  0  0  0
   -3.4469   -1.4847   -0.9352 H   0  0  0  0  0  0  0  0  0  0  0  0
   -2.8160   -1.0359   -1.7068 C   0  0  0  0  0  0  0  0  0  0  0  0
   -2.1242   -2.0176    0.8557 H   0  0  0  0  0  0  0  0  0  0  0  0
   -1.5107   -1.8049   -1.8878 C   0  0  0  0  0  0  0  0  0  0  0  0
   -1.3357   -2.6374    0.4387 C   0  0  0  0  0  0  0  0  0  0  0  0
    0.3868   -3.7688   -0.9788 H   0  0  0  0  0  0  0  0  0  0  0  0
   -3.2907   -0.4640    0.9596 H   0  0  0  0  0  0  0  0  0  0  0  0
   -0.9075   -1.3176   -2.6633 H   0  0  0  0  0  0  0  0  0  0  0  0
   -3.6043    0.9777   -1.6177 H   0  0  0  0  0  0  0  0  0  0  0  0
   -0.6277   -2.8567    1.2371 H   0  0  0  0  0  0  0  0  0  0  0  0
   -0.6337   -1.9189   -0.6720 N   0  0  2  0  0  0  0  0  0  0  0  0
   -3.9755    1.1503    0.7028 H   0  0  0  0  0  0  0  0  0  0  0  0
   -2.6382    0.4682   -1.5037 C   0  0  0  0  0  0  0  0  0  0  0  0
    0.5961   -2.6953   -1.0500 C   0  0  0  0  0  0  0  0  0  0  0  0
    0.8222   -2.4866   -2.0967 H   0  0  0  0  0  0  0  0  0  0  0  0
   -3.0515    0.5953    0.9057 C   0  0  0  0  0  0  0  0  0  0  0  0
   -1.9798    0.8456   -2.2911 H   0  0  0  0  0  0  0  0  0  0  0  0
    1.5490   -2.5985    0.8856 H   0  0  0  0  0  0  0  0  0  0  0  0
   -2.0562    0.8651   -0.1786 N   0  0  1  0  0  0  0  0  0  0  0  0
   -2.6431    0.9080    1.8650 H   0  0  0  0  0  0  0  0  0  0  0  0
    1.7657   -2.3349   -0.1526 C   0  0  0  0  0  0  0  0  0  0  0  0
    2.6566   -2.8997   -0.4565 H   0  0  0  0  0  0  0  0  0  0  0  0
   -2.6567    2.8998   -0.4558 H   0  0  0  0  0  0  0  0  0  0  0  0
   -1.7658    2.3349   -0.1521 C   0  0  0  0  0  0  0  0  0  0  0  0
    1.9791   -0.8450   -2.2914 H   0  0  0  0  0  0  0  0  0  0  0  0
    2.0561   -0.8651   -0.1790 N   0  0  1  0  0  0  0  0  0  0  0  0
   -0.8225    2.4869   -2.0962 H   0  0  0  0  0  0  0  0  0  0  0  0
   -1.5490    2.5984    0.8862 H   0  0  0  0  0  0  0  0  0  0  0  0
    2.6435   -0.9085    1.8644 H   0  0  0  0  0  0  0  0  0  0  0  0
   -0.5962    2.6955   -1.0495 C   0  0  0  0  0  0  0  0  0  0  0  0
    2.6378   -0.4679   -1.5041 C   0  0  0  0  0  0  0  0  0  0  0  0
    0.9073    1.3184   -2.6633 H   0  0  0  0  0  0  0  0  0  0  0  0
    3.6038   -0.9775   -1.6184 H   0  0  0  0  0  0  0  0  0  0  0  0
    3.0516   -0.5954    0.9052 C   0  0  0  0  0  0  0  0  0  0  0  0
    3.9757   -1.1501    0.7019 H   0  0  0  0  0  0  0  0  0  0  0  0
    0.6336    1.9191   -0.6717 N   0  0  2  0  0  0  0  0  0  0  0  0
   -0.3869    3.7690   -0.9782 H   0  0  0  0  0  0  0  0  0  0  0  0
    1.5105    1.8053   -1.8876 C   0  0  0  0  0  0  0  0  0  0  0  0
    0.6279    2.8563    1.2377 H   0  0  0  0  0  0  0  0  0  0  0  0
    2.8158    1.0362   -1.7069 C   0  0  0  0  0  0  0  0  0  0  0  0
    3.2904    0.4640    0.9594 H   0  0  0  0  0  0  0  0  0  0  0  0
    3.3752    1.1608   -2.6414 H   0  0  0  0  0  0  0  0  0  0  0  0
    1.3357    2.6374    0.4390 C   0  0  0  0  0  0  0  0  0  0  0  0
    1.7271    2.8244   -2.2348 H   0  0  0  0  0  0  0  0  0  0  0  0
    2.1244    2.0175    0.8557 H   0  0  0  0  0  0  0  0  0  0  0  0
    3.4468    1.4847   -0.9352 H   0  0  0  0  0  0  0  0  0  0  0  0
    1.7661    3.5730    0.0630 H   0  0  0  0  0  0  0  0  0  0  0  0
    0.0002   -0.0003    2.4897 Br  0  0  0  0  0  0  0  0  0  0  0  0
  1 52  1  0  0  0  0
  2  6  1  0  0  0  0
  3  8  1  0  0  0  0
  4  9  1  0  0  0  0
  6 17  1  0  0  0  0
  6  5  1  0  0  0  0
  8  6  1  0  0  0  0
  8 15  1  0  0  0  0
  9  7  1  0  0  0  0
  9 14  1  0  0  0  0
 12  8  1  0  0  0  0
 13 17  1  0  0  0  0
 15  9  1  1  0  0  0
 15  1  9  0  0  0  0
 16 20  1  0  0  0  0
 17 23  1  0  0  0  0
 18 10  1  0  0  0  0
 18 15  1  0  0  0  0
 18 25  1  0  0  0  0
 19 18  1  0  0  0  0
 20 11  1  0  0  0  0
 20 24  1  0  0  0  0
 21 17  1  0  0  0  0
 23 28  1  0  0  0  0
 23 20  1  1  0  0  0
 23  1  9  0  0  0  0
 25 22  1  0  0  0  0
 26 25  1  0  0  0  0
 27 28  1  0  0  0  0
 28 32  1  0  0  0  0
 29 35  1  0  0  0  0
 30 25  1  0  0  0  0
 30 38  1  1  0  0  0
 30  1  9  0  0  0  0
 31 34  1  0  0  0  0
 34 41  1  0  0  0  0
 34 40  1  0  0  0  0
 34 28  1  0  0  0  0
 35 30  1  0  0  0  0
 36 42  1  0  0  0  0
 37 35  1  0  0  0  0
 38 45  1  0  0  0  0
 38 33  1  0  0  0  0
 39 38  1  0  0  0  0
 40 47  1  1  0  0  0
 40  1  9  0  0  0  0
 42 44  1  0  0  0  0
 42 40  1  0  0  0  0
 44 35  1  0  0  0  0
 44 50  1  0  0  0  0
 46 44  1  0  0  0  0
 47 49  1  0  0  0  0
 47 43  1  0  0  0  0
 48 42  1  0  0  0  0
 51 47  1  0  0  0  0
M  CHG  1   1   2
M  END
$$$$
