
 OpenBabel02052520053D

 51 58  0  0  0  0  0  0  0  0999 V2000
    0.0628   -0.0003    0.7728 Fe  0  2  0  0  0  0  0  0  0  0  0  0
   -0.1355   -0.0002   -1.4755 N   0  0  1  0  0  0  0  0  0  0  0  0
   -1.5105    1.4220    0.3855 N   0  0  0  0  0  0  0  0  0  0  0  0
   -1.5111   -1.4218    0.3855 N   0  0  0  0  0  0  0  0  0  0  0  0
    1.5063    1.4558    0.2120 N   0  0  0  0  0  0  0  0  0  0  0  0
    1.5062   -1.4563    0.2119 N   0  0  0  0  0  0  0  0  0  0  0  0
   -1.8931    2.4235    1.1929 C   0  0  0  0  0  0  0  0  0  0  0  0
   -2.9318    3.2843    0.8403 C   0  0  0  0  0  0  0  0  0  0  0  0
   -3.5781    3.0921   -0.3810 C   0  0  0  0  0  0  0  0  0  0  0  0
   -3.1751    2.0428   -1.2173 C   0  0  0  0  0  0  0  0  0  0  0  0
   -2.1366    1.2250   -0.7950 C   0  0  0  0  0  0  0  0  0  0  0  0
   -1.6338    0.0001   -1.5503 C   0  0  2  0  0  0  0  0  0  0  0  0
   -2.1371   -1.2246   -0.7949 C   0  0  0  0  0  0  0  0  0  0  0  0
   -3.1760   -2.0419   -1.2171 C   0  0  0  0  0  0  0  0  0  0  0  0
   -3.5795   -3.0910   -0.3808 C   0  0  0  0  0  0  0  0  0  0  0  0
   -2.9332   -3.2834    0.8405 C   0  0  0  0  0  0  0  0  0  0  0  0
   -1.8941   -2.4231    1.1930 C   0  0  0  0  0  0  0  0  0  0  0  0
    2.4086    1.9532    1.0820 C   0  0  0  0  0  0  0  0  0  0  0  0
    3.4524    2.7727    0.6690 C   0  0  0  0  0  0  0  0  0  0  0  0
    3.5699    3.0715   -0.6900 C   0  0  0  0  0  0  0  0  0  0  0  0
    2.6351    2.5499   -1.5874 C   0  0  0  0  0  0  0  0  0  0  0  0
    1.6056    1.7486   -1.1024 C   0  0  0  0  0  0  0  0  0  0  0  0
    0.4985    1.2391   -2.0024 C   0  0  0  0  0  0  0  0  0  0  0  0
    0.4981   -1.2398   -2.0023 C   0  0  0  0  0  0  0  0  0  0  0  0
    1.6055   -1.7490   -1.1026 C   0  0  0  0  0  0  0  0  0  0  0  0
    2.6353   -2.5499   -1.5877 C   0  0  0  0  0  0  0  0  0  0  0  0
    3.5703   -3.0712   -0.6905 C   0  0  0  0  0  0  0  0  0  0  0  0
    3.4528   -2.7727    0.6686 C   0  0  0  0  0  0  0  0  0  0  0  0
    2.4088   -1.9535    1.0817 C   0  0  0  0  0  0  0  0  0  0  0  0
   -1.3545    2.5139    2.1302 H   0  0  0  0  0  0  0  0  0  0  0  0
   -3.2235    4.0830    1.5135 H   0  0  0  0  0  0  0  0  0  0  0  0
   -4.3881    3.7485   -0.6839 H   0  0  0  0  0  0  0  0  0  0  0  0
   -3.6603    1.8689   -2.1724 H   0  0  0  0  0  0  0  0  0  0  0  0
   -1.9962    0.0001   -2.5846 H   0  0  0  0  0  0  0  0  0  0  0  0
   -3.6612   -1.8679   -2.1722 H   0  0  0  0  0  0  0  0  0  0  0  0
   -4.3897   -3.7471   -0.6837 H   0  0  0  0  0  0  0  0  0  0  0  0
   -3.2253   -4.0820    1.5137 H   0  0  0  0  0  0  0  0  0  0  0  0
   -1.3555   -2.5138    2.1303 H   0  0  0  0  0  0  0  0  0  0  0  0
    2.2708    1.6722    2.1201 H   0  0  0  0  0  0  0  0  0  0  0  0
    4.1568    3.1595    1.3973 H   0  0  0  0  0  0  0  0  0  0  0  0
    4.3788    3.7005   -1.0486 H   0  0  0  0  0  0  0  0  0  0  0  0
    2.7012    2.7675   -2.6489 H   0  0  0  0  0  0  0  0  0  0  0  0
    2.7013   -2.7673   -2.6493 H   0  0  0  0  0  0  0  0  0  0  0  0
    4.3795   -3.6999   -1.0492 H   0  0  0  0  0  0  0  0  0  0  0  0
    4.1574   -3.1593    1.3968 H   0  0  0  0  0  0  0  0  0  0  0  0
    2.2710   -1.6727    2.1199 H   0  0  0  0  0  0  0  0  0  0  0  0
    0.8717    1.0798   -3.0197 H   0  0  0  0  0  0  0  0  0  0  0  0
   -0.2668    2.0184   -2.0690 H   0  0  0  0  0  0  0  0  0  0  0  0
    0.8706   -1.0810   -3.0199 H   0  0  0  0  0  0  0  0  0  0  0  0
   -0.2675   -2.0191   -2.0680 H   0  0  0  0  0  0  0  0  0  0  0  0
    0.1633   -0.0003    2.9779 Cl  0  0  0  0  0  0  0  0  0  0  0  0
  1 51  1  0  0  0  0
  2 23  1  6  0  0  0
  2  1  9  0  0  0  0
  3  7  1  0  0  0  0
  3  1  9  0  0  0  0
  4 17  1  0  0  0  0
  4  1  9  0  0  0  0
  5 18  1  0  0  0  0
  5  1  9  0  0  0  0
  6 29  1  0  0  0  0
  6  1  9  0  0  0  0
  7 30  1  0  0  0  0
  8  7  2  0  0  0  0
  8 31  1  0  0  0  0
  9  8  1  0  0  0  0
 10 11  1  0  0  0  0
 10  9  2  0  0  0  0
 11  3  2  0  0  0  0
 12 34  1  6  0  0  0
 12  2  1  0  0  0  0
 12 11  1  0  0  0  0
 12 13  1  0  0  0  0
 13  4  2  0  0  0  0
 14 13  1  0  0  0  0
 14 15  2  0  0  0  0
 15 16  1  0  0  0  0
 16 17  2  0  0  0  0
 16 37  1  0  0  0  0
 17 38  1  0  0  0  0
 18 39  1  0  0  0  0
 19 18  2  0  0  0  0
 19 40  1  0  0  0  0
 20 19  1  0  0  0  0
 21 22  1  0  0  0  0
 21 20  2  0  0  0  0
 22  5  2  0  0  0  0
 23 22  1  0  0  0  0
 24  2  1  0  0  0  0
 24 25  1  0  0  0  0
 25  6  2  0  0  0  0
 26 25  1  0  0  0  0
 26 27  2  0  0  0  0
 27 28  1  0  0  0  0
 28 29  2  0  0  0  0
 28 45  1  0  0  0  0
 29 46  1  0  0  0  0
 32  9  1  0  0  0  0
 33 10  1  0  0  0  0
 35 14  1  0  0  0  0
 36 15  1  0  0  0  0
 41 20  1  0  0  0  0
 42 21  1  0  0  0  0
 43 26  1  0  0  0  0
 44 27  1  0  0  0  0
 47 23  1  0  0  0  0
 48 23  1  0  0  0  0
 49 24  1  0  0  0  0
 50 24  1  0  0  0  0
M  CHG  1   1   2
M  END
$$$$
