
 OpenBabel02052520053D

 52 55  0  0  0  0  0  0  0  0999 V2000
    0.0000   -0.0000    0.3644 Fe  0  2  0  0  0  0  0  0  0  0  0  0
    3.4183    1.1702   -2.3518 H   0  0  0  0  0  0  0  0  0  0  0  0
    1.7493    2.8170   -1.9740 H   0  0  0  0  0  0  0  0  0  0  0  0
    1.7492    3.5636    0.3384 H   0  0  0  0  0  0  0  0  0  0  0  0
    3.4574    1.4915   -0.6443 H   0  0  0  0  0  0  0  0  0  0  0  0
    2.8438    1.0386   -1.4275 C   0  0  0  0  0  0  0  0  0  0  0  0
    2.1110    2.0028    1.1196 H   0  0  0  0  0  0  0  0  0  0  0  0
    1.5351    1.7968   -1.6287 C   0  0  0  0  0  0  0  0  0  0  0  0
    1.3225    2.6208    0.7000 C   0  0  0  0  0  0  0  0  0  0  0  0
   -0.3746    3.7533   -0.7724 H   0  0  0  0  0  0  0  0  0  0  0  0
    3.2847    0.4435    1.2344 H   0  0  0  0  0  0  0  0  0  0  0  0
    0.9463    1.3047   -2.4121 H   0  0  0  0  0  0  0  0  0  0  0  0
    3.6535   -0.9643   -1.3105 H   0  0  0  0  0  0  0  0  0  0  0  0
    0.6043    2.8246    1.4934 H   0  0  0  0  0  0  0  0  0  0  0  0
    0.6398    1.9076   -0.4260 N   0  0  2  0  0  0  0  0  0  0  0  0
    3.9297   -1.1947    1.0377 H   0  0  0  0  0  0  0  0  0  0  0  0
    2.6775   -0.4674   -1.2301 C   0  0  0  0  0  0  0  0  0  0  0  0
   -0.5873    2.6790   -0.8211 C   0  0  0  0  0  0  0  0  0  0  0  0
   -0.8120    2.4468   -1.8634 H   0  0  0  0  0  0  0  0  0  0  0  0
    3.0154   -0.6092    1.1930 C   0  0  0  0  0  0  0  0  0  0  0  0
    2.0511   -0.8544   -2.0387 H   0  0  0  0  0  0  0  0  0  0  0  0
   -1.5419    2.6165    1.1161 H   0  0  0  0  0  0  0  0  0  0  0  0
    2.0568   -0.8711    0.0744 N   0  0  1  0  0  0  0  0  0  0  0  0
    2.5581   -0.8892    2.1403 H   0  0  0  0  0  0  0  0  0  0  0  0
   -1.7590    2.3391    0.0817 C   0  0  0  0  0  0  0  0  0  0  0  0
   -2.6469    2.9044   -0.2299 H   0  0  0  0  0  0  0  0  0  0  0  0
    2.6469   -2.9044   -0.2299 H   0  0  0  0  0  0  0  0  0  0  0  0
    1.7590   -2.3392    0.0817 C   0  0  0  0  0  0  0  0  0  0  0  0
   -2.0507    0.8543   -2.0387 H   0  0  0  0  0  0  0  0  0  0  0  0
   -2.0567    0.8711    0.0743 N   0  0  1  0  0  0  0  0  0  0  0  0
    0.8120   -2.4468   -1.8633 H   0  0  0  0  0  0  0  0  0  0  0  0
    1.5420   -2.6165    1.1161 H   0  0  0  0  0  0  0  0  0  0  0  0
   -2.5583    0.8893    2.1402 H   0  0  0  0  0  0  0  0  0  0  0  0
    0.5872   -2.6791   -0.8210 C   0  0  0  0  0  0  0  0  0  0  0  0
   -2.6772    0.4674   -1.2302 C   0  0  0  0  0  0  0  0  0  0  0  0
   -0.9463   -1.3050   -2.4121 H   0  0  0  0  0  0  0  0  0  0  0  0
   -3.6532    0.9644   -1.3108 H   0  0  0  0  0  0  0  0  0  0  0  0
   -3.0154    0.6091    1.1928 C   0  0  0  0  0  0  0  0  0  0  0  0
   -3.9298    1.1944    1.0374 H   0  0  0  0  0  0  0  0  0  0  0  0
   -0.6399   -1.9076   -0.4259 N   0  0  2  0  0  0  0  0  0  0  0  0
    0.3745   -3.7533   -0.7724 H   0  0  0  0  0  0  0  0  0  0  0  0
   -1.5352   -1.7970   -1.6287 C   0  0  0  0  0  0  0  0  0  0  0  0
   -0.6046   -2.8243    1.4936 H   0  0  0  0  0  0  0  0  0  0  0  0
   -2.8438   -1.0386   -1.4275 C   0  0  0  0  0  0  0  0  0  0  0  0
   -3.2844   -0.4437    1.2344 H   0  0  0  0  0  0  0  0  0  0  0  0
   -3.4182   -1.1702   -2.3519 H   0  0  0  0  0  0  0  0  0  0  0  0
   -1.3226   -2.6207    0.7001 C   0  0  0  0  0  0  0  0  0  0  0  0
   -1.7494   -2.8171   -1.9738 H   0  0  0  0  0  0  0  0  0  0  0  0
   -2.1113   -2.0027    1.1193 H   0  0  0  0  0  0  0  0  0  0  0  0
   -3.4574   -1.4914   -0.6443 H   0  0  0  0  0  0  0  0  0  0  0  0
   -1.7491   -3.5636    0.3386 H   0  0  0  0  0  0  0  0  0  0  0  0
   -0.0001    0.0001    2.5456 Cl  0  0  0  0  0  0  0  0  0  0  0  0
  1 52  1  0  0  0  0
  2  6  1  0  0  0  0
  3  8  1  0  0  0  0
  4  9  1  0  0  0  0
  6 17  1  0  0  0  0
  6  5  1  0  0  0  0
  8  6  1  0  0  0  0
  8 15  1  0  0  0  0
  9  7  1  0  0  0  0
  9 14  1  0  0  0  0
 12  8  1  0  0  0  0
 13 17  1  0  0  0  0
 15  9  1  1  0  0  0
 15  1  9  0  0  0  0
 16 20  1  0  0  0  0
 17 23  1  0  0  0  0
 18 10  1  0  0  0  0
 18 15  1  0  0  0  0
 18 25  1  0  0  0  0
 19 18  1  0  0  0  0
 20 11  1  0  0  0  0
 20 24  1  0  0  0  0
 21 17  1  0  0  0  0
 23 28  1  0  0  0  0
 23 20  1  1  0  0  0
 23  1  9  0  0  0  0
 25 22  1  0  0  0  0
 26 25  1  0  0  0  0
 27 28  1  0  0  0  0
 28 32  1  0  0  0  0
 29 35  1  0  0  0  0
 30 25  1  0  0  0  0
 30 38  1  1  0  0  0
 30  1  9  0  0  0  0
 31 34  1  0  0  0  0
 34 41  1  0  0  0  0
 34 40  1  0  0  0  0
 34 28  1  0  0  0  0
 35 30  1  0  0  0  0
 36 42  1  0  0  0  0
 37 35  1  0  0  0  0
 38 45  1  0  0  0  0
 38 33  1  0  0  0  0
 39 38  1  0  0  0  0
 40 47  1  1  0  0  0
 40  1  9  0  0  0  0
 42 44  1  0  0  0  0
 42 40  1  0  0  0  0
 44 35  1  0  0  0  0
 44 50  1  0  0  0  0
 46 44  1  0  0  0  0
 47 49  1  0  0  0  0
 47 43  1  0  0  0  0
 48 42  1  0  0  0  0
 51 47  1  0  0  0  0
M  CHG  1   1   2
M  END
$$$$
