
 OpenBabel02052520053D

 52 59  0  0  0  0  0  0  0  0999 V2000
    0.0330   -0.0003   -0.6238 Fe  0  2  0  0  0  0  0  0  0  0  0  0
   -0.1555   -0.0001    1.4056 N   0  0  1  0  0  0  0  0  0  0  0  0
   -1.4163   -1.3584   -0.4937 N   0  0  0  0  0  0  0  0  0  0  0  0
   -1.4170    1.3577   -0.4942 N   0  0  0  0  0  0  0  0  0  0  0  0
    1.4342   -1.3530   -0.2996 N   0  0  0  0  0  0  0  0  0  0  0  0
    1.4333    1.3533   -0.2996 N   0  0  0  0  0  0  0  0  0  0  0  0
    0.2398   -0.0017   -2.3954 O   0  0  0  0  0  0  0  0  0  0  0  0
   -1.6941   -2.3624   -1.3371 C   0  0  0  0  0  0  0  0  0  0  0  0
   -2.7146   -3.2731   -1.0644 C   0  0  0  0  0  0  0  0  0  0  0  0
   -3.4443   -3.1361    0.1171 C   0  0  0  0  0  0  0  0  0  0  0  0
   -3.1394   -2.0916    0.9999 C   0  0  0  0  0  0  0  0  0  0  0  0
   -2.1173   -1.2196    0.6555 C   0  0  0  0  0  0  0  0  0  0  0  0
   -1.6700   -0.0003    1.4502 C   0  0  2  0  0  0  0  0  0  0  0  0
   -2.1177    1.2187    0.6552 C   0  0  0  0  0  0  0  0  0  0  0  0
   -3.1399    2.0904    1.0000 C   0  0  0  0  0  0  0  0  0  0  0  0
   -3.4453    3.1349    0.1175 C   0  0  0  0  0  0  0  0  0  0  0  0
   -2.7159    3.2723   -1.0641 C   0  0  0  0  0  0  0  0  0  0  0  0
   -1.6953    2.3619   -1.3372 C   0  0  0  0  0  0  0  0  0  0  0  0
    2.2904   -1.8015   -1.2334 C   0  0  0  0  0  0  0  0  0  0  0  0
    3.3252   -2.6734   -0.9088 C   0  0  0  0  0  0  0  0  0  0  0  0
    3.4763   -3.0743    0.4198 C   0  0  0  0  0  0  0  0  0  0  0  0
    2.5825   -2.6000    1.3834 C   0  0  0  0  0  0  0  0  0  0  0  0
    1.5619   -1.7418    0.9875 C   0  0  0  0  0  0  0  0  0  0  0  0
    0.4882   -1.2469    1.9340 C   0  0  0  0  0  0  0  0  0  0  0  0
    0.4877    1.2470    1.9341 C   0  0  0  0  0  0  0  0  0  0  0  0
    1.5607    1.7427    0.9873 C   0  0  0  0  0  0  0  0  0  0  0  0
    2.5805    2.6021    1.3828 C   0  0  0  0  0  0  0  0  0  0  0  0
    3.4738    3.0768    0.4190 C   0  0  0  0  0  0  0  0  0  0  0  0
    3.3231    2.6753   -0.9095 C   0  0  0  0  0  0  0  0  0  0  0  0
    2.2890    1.8023   -1.2336 C   0  0  0  0  0  0  0  0  0  0  0  0
   -1.0800   -2.4149   -2.2295 H   0  0  0  0  0  0  0  0  0  0  0  0
   -2.9263   -4.0717   -1.7669 H   0  0  0  0  0  0  0  0  0  0  0  0
   -4.2395   -3.8353    0.3561 H   0  0  0  0  0  0  0  0  0  0  0  0
   -3.6830   -1.9652    1.9306 H   0  0  0  0  0  0  0  0  0  0  0  0
   -2.0649   -0.0002    2.4710 H   0  0  0  0  0  0  0  0  0  0  0  0
   -3.6832    1.9637    1.9308 H   0  0  0  0  0  0  0  0  0  0  0  0
   -4.2407    3.8339    0.3567 H   0  0  0  0  0  0  0  0  0  0  0  0
   -2.9278    4.0711   -1.7665 H   0  0  0  0  0  0  0  0  0  0  0  0
   -1.0813    2.4151   -2.2297 H   0  0  0  0  0  0  0  0  0  0  0  0
    2.1123   -1.4348   -2.2380 H   0  0  0  0  0  0  0  0  0  0  0  0
    3.9997   -3.0214   -1.6836 H   0  0  0  0  0  0  0  0  0  0  0  0
    4.2801   -3.7457    0.7055 H   0  0  0  0  0  0  0  0  0  0  0  0
    2.6740   -2.8956    2.4239 H   0  0  0  0  0  0  0  0  0  0  0  0
    2.6717    2.8981    2.4232 H   0  0  0  0  0  0  0  0  0  0  0  0
    4.2769    3.7491    0.7044 H   0  0  0  0  0  0  0  0  0  0  0  0
    3.9972    3.0236   -1.6843 H   0  0  0  0  0  0  0  0  0  0  0  0
    2.1113    1.4349   -2.2381 H   0  0  0  0  0  0  0  0  0  0  0  0
    0.8886   -1.0767    2.9378 H   0  0  0  0  0  0  0  0  0  0  0  0
   -0.2813   -2.0191    2.0268 H   0  0  0  0  0  0  0  0  0  0  0  0
    0.8886    1.0767    2.9376 H   0  0  0  0  0  0  0  0  0  0  0  0
   -0.2823    2.0187    2.0275 H   0  0  0  0  0  0  0  0  0  0  0  0
   -0.6080    0.0028   -2.8740 H   0  0  0  0  0  0  0  0  0  0  0  0
  2 13  1  0  0  0  0
  2 24  1  1  0  0  0
  2 25  1  0  0  0  0
  2  1  9  0  0  0  0
  3 12  1  0  0  0  0
  3  1  9  0  0  0  0
  4 14  1  0  0  0  0
  4  1  9  0  0  0  0
  5 23  1  0  0  0  0
  5  1  9  0  0  0  0
  6 26  1  0  0  0  0
  6  1  9  0  0  0  0
  7  1  1  0  0  0  0
  8  9  1  0  0  0  0
  8  3  2  0  0  0  0
  9 10  2  0  0  0  0
 10 33  1  0  0  0  0
 10 11  1  0  0  0  0
 11 34  1  0  0  0  0
 12 11  2  0  0  0  0
 12 13  1  0  0  0  0
 13 35  1  1  0  0  0
 14 15  2  0  0  0  0
 14 13  1  0  0  0  0
 15 36  1  0  0  0  0
 16 37  1  0  0  0  0
 16 15  1  0  0  0  0
 17 16  2  0  0  0  0
 18 17  1  0  0  0  0
 18  4  2  0  0  0  0
 19 20  1  0  0  0  0
 19  5  2  0  0  0  0
 20 21  2  0  0  0  0
 21 42  1  0  0  0  0
 21 22  1  0  0  0  0
 22 43  1  0  0  0  0
 23 22  2  0  0  0  0
 23 24  1  0  0  0  0
 24 49  1  0  0  0  0
 24 48  1  0  0  0  0
 25 51  1  0  0  0  0
 25 50  1  0  0  0  0
 26 27  2  0  0  0  0
 26 25  1  0  0  0  0
 27 44  1  0  0  0  0
 28 45  1  0  0  0  0
 28 27  1  0  0  0  0
 29 28  2  0  0  0  0
 30 29  1  0  0  0  0
 30  6  2  0  0  0  0
 31  8  1  0  0  0  0
 32  9  1  0  0  0  0
 38 17  1  0  0  0  0
 39 18  1  0  0  0  0
 40 19  1  0  0  0  0
 41 20  1  0  0  0  0
 46 29  1  0  0  0  0
 47 30  1  0  0  0  0
 52  7  1  0  0  0  0
M  CHG  1   1   2
M  END
$$$$
