
 OpenBabel02052520053D

 51 54  0  0  0  0  0  0  0  0999 V2000
    0.0343    0.0215    0.0115 Fe  0  2  0  0  0  0  0  0  0  0  0  0
    0.0194    2.2014   -0.4404 N   0  0  2  0  0  0  0  0  0  0  0  0
   -0.9854   -0.1243   -1.8982 N   0  0  2  0  0  0  0  0  0  0  0  0
   -0.9330   -1.7558    0.8627 N   0  0  1  0  0  0  0  0  0  0  0  0
   -0.3551    0.8267    1.9974 N   0  0  2  0  0  0  0  0  0  0  0  0
   -0.2279   -1.0614   -2.7809 C   0  0  0  0  0  0  0  0  0  0  0  0
   -0.9558    1.2489   -2.5111 C   0  0  0  0  0  0  0  0  0  0  0  0
   -1.0718    2.3336   -1.4493 C   0  0  0  0  0  0  0  0  0  0  0  0
    1.3353    2.6221   -1.0008 C   0  0  0  0  0  0  0  0  0  0  0  0
   -2.4174   -0.5608   -1.7505 C   0  0  0  0  0  0  0  0  0  0  0  0
   -2.6498   -1.8913   -1.0336 C   0  0  0  0  0  0  0  0  0  0  0  0
   -2.3747   -1.8867    0.4700 C   0  0  0  0  0  0  0  0  0  0  0  0
   -0.1739   -2.9853    0.4880 C   0  0  0  0  0  0  0  0  0  0  0  0
   -1.0632    2.1216    1.7850 C   0  0  0  0  0  0  0  0  0  0  0  0
   -0.2954    2.9877    0.7941 C   0  0  0  0  0  0  0  0  0  0  0  0
    0.9622    1.0165    2.6730 C   0  0  0  0  0  0  0  0  0  0  0  0
   -1.1942   -0.1484    2.7553 C   0  0  0  0  0  0  0  0  0  0  0  0
   -0.8235   -1.5683    2.3471 C   0  0  0  0  0  0  0  0  0  0  0  0
    0.8321    1.5597    3.6168 H   0  0  0  0  0  0  0  0  0  0  0  0
    1.4105    0.0435    2.8743 H   0  0  0  0  0  0  0  0  0  0  0  0
    1.6457    1.5653    2.0259 H   0  0  0  0  0  0  0  0  0  0  0  0
    0.8705   -2.8633    0.7756 H   0  0  0  0  0  0  0  0  0  0  0  0
   -0.5954   -3.8629    0.9932 H   0  0  0  0  0  0  0  0  0  0  0  0
   -0.2166   -3.1453   -0.5877 H   0  0  0  0  0  0  0  0  0  0  0  0
   -0.6786   -1.0950   -3.7801 H   0  0  0  0  0  0  0  0  0  0  0  0
    0.8064   -0.7230   -2.8558 H   0  0  0  0  0  0  0  0  0  0  0  0
   -0.2284   -2.0640   -2.3583 H   0  0  0  0  0  0  0  0  0  0  0  0
   -1.7643    1.3476   -3.2446 H   0  0  0  0  0  0  0  0  0  0  0  0
   -0.0176    1.3508   -3.0583 H   0  0  0  0  0  0  0  0  0  0  0  0
    1.5890    2.0147   -1.8693 H   0  0  0  0  0  0  0  0  0  0  0  0
    1.3123    3.6798   -1.2901 H   0  0  0  0  0  0  0  0  0  0  0  0
    2.1096    2.4654   -0.2488 H   0  0  0  0  0  0  0  0  0  0  0  0
   -2.0277    2.2532   -0.9225 H   0  0  0  0  0  0  0  0  0  0  0  0
   -1.0405    3.3252   -1.9195 H   0  0  0  0  0  0  0  0  0  0  0  0
   -0.8751    3.8837    0.5440 H   0  0  0  0  0  0  0  0  0  0  0  0
    0.6432    3.3329    1.2299 H   0  0  0  0  0  0  0  0  0  0  0  0
   -1.0572   -0.0165    3.8350 H   0  0  0  0  0  0  0  0  0  0  0  0
   -2.2438    0.0616    2.5386 H   0  0  0  0  0  0  0  0  0  0  0  0
   -1.4584   -2.2961    2.8681 H   0  0  0  0  0  0  0  0  0  0  0  0
    0.2114   -1.7828    2.6243 H   0  0  0  0  0  0  0  0  0  0  0  0
   -2.9198   -1.0529    0.9222 H   0  0  0  0  0  0  0  0  0  0  0  0
   -2.7666   -2.8099    0.9178 H   0  0  0  0  0  0  0  0  0  0  0  0
   -3.7171   -2.1143   -1.1489 H   0  0  0  0  0  0  0  0  0  0  0  0
   -2.1351   -2.7140   -1.5371 H   0  0  0  0  0  0  0  0  0  0  0  0
   -2.9436    0.2357   -1.2125 H   0  0  0  0  0  0  0  0  0  0  0  0
   -2.8528   -0.6135   -2.7571 H   0  0  0  0  0  0  0  0  0  0  0  0
   -2.0581    1.8854    1.3920 H   0  0  0  0  0  0  0  0  0  0  0  0
   -1.2006    2.6533    2.7355 H   0  0  0  0  0  0  0  0  0  0  0  0
    1.7951   -0.4592   -0.1553 N   0  0  0  0  0  0  0  0  0  0  0  0
    2.9630   -0.7675   -0.2787 C   0  0  0  0  0  0  0  0  0  0  0  0
    4.4756   -1.1655   -0.4381 S   0  0  0  0  0  0  0  0  0  0  0  0
  2  9  1  6  0  0  0
  2 15  1  0  0  0  0
  2  1  9  0  0  0  0
  3  6  1  6  0  0  0
  3 10  1  0  0  0  0
  3  1  9  0  0  0  0
  4 13  1  6  0  0  0
  4 18  1  0  0  0  0
  4  1  9  0  0  0  0
  5 16  1  1  0  0  0
  5 17  1  0  0  0  0
  5  1  9  0  0  0  0
  6 27  1  0  0  0  0
  7  3  1  0  0  0  0
  7  8  1  0  0  0  0
  8 33  1  0  0  0  0
  8  2  1  0  0  0  0
  9 32  1  0  0  0  0
 10 45  1  0  0  0  0
 10 11  1  0  0  0  0
 11 12  1  0  0  0  0
 12  4  1  0  0  0  0
 12 42  1  0  0  0  0
 12 41  1  0  0  0  0
 13 22  1  0  0  0  0
 13 23  1  0  0  0  0
 14  5  1  0  0  0  0
 14 48  1  0  0  0  0
 15 36  1  0  0  0  0
 15 14  1  0  0  0  0
 16 20  1  0  0  0  0
 16 19  1  0  0  0  0
 17 37  1  0  0  0  0
 18 40  1  0  0  0  0
 18 17  1  0  0  0  0
 18 39  1  0  0  0  0
 21 16  1  0  0  0  0
 24 13  1  0  0  0  0
 25  6  1  0  0  0  0
 26  6  1  0  0  0  0
 28  7  1  0  0  0  0
 29  7  1  0  0  0  0
 30  9  1  0  0  0  0
 31  9  1  0  0  0  0
 34  8  1  0  0  0  0
 35 15  1  0  0  0  0
 38 17  1  0  0  0  0
 43 11  1  0  0  0  0
 44 11  1  0  0  0  0
 46 10  1  0  0  0  0
 47 14  1  0  0  0  0
 49  1  1  0  0  0  0
 50 49  2  0  0  0  0
 51 50  2  0  0  0  0
M  CHG  1   1   2
M  END
$$$$
