
 OpenBabel02052520053D

 49 52  0  0  0  0  0  0  0  0999 V2000
   -0.0769   -0.0342    0.3962 Fe  0  2  0  0  0  0  0  0  0  0  0  0
   -2.0540    0.6917   -0.3230 N   0  0  2  0  0  0  0  0  0  0  0  0
    0.5805    1.9472   -0.1512 N   0  0  2  0  0  0  0  0  0  0  0  0
    1.8576   -0.9775    0.0120 N   0  0  1  0  0  0  0  0  0  0  0  0
   -0.8222   -1.8278   -0.5731 N   0  0  2  0  0  0  0  0  0  0  0  0
    1.2492    2.5856    1.0255 C   0  0  0  0  0  0  0  0  0  0  0  0
   -0.6593    2.7316   -0.4868 C   0  0  0  0  0  0  0  0  0  0  0  0
   -1.6916    1.8582   -1.1825 C   0  0  0  0  0  0  0  0  0  0  0  0
   -2.9151    1.1101    0.8250 C   0  0  0  0  0  0  0  0  0  0  0  0
    1.4902    1.9320   -1.3506 C   0  0  0  0  0  0  0  0  0  0  0  0
    2.7505    1.0755   -1.2328 C   0  0  0  0  0  0  0  0  0  0  0  0
    2.5137   -0.4340   -1.2246 C   0  0  0  0  0  0  0  0  0  0  0  0
    2.7699   -0.8507    1.1910 C   0  0  0  0  0  0  0  0  0  0  0  0
   -1.7105   -1.3505   -1.6727 C   0  0  0  0  0  0  0  0  0  0  0  0
   -2.7396   -0.3712   -1.1265 C   0  0  0  0  0  0  0  0  0  0  0  0
   -1.5698   -2.6210    0.4515 C   0  0  0  0  0  0  0  0  0  0  0  0
    0.3356   -2.6159   -1.0953 C   0  0  0  0  0  0  0  0  0  0  0  0
    1.5302   -2.4313   -0.1711 C   0  0  0  0  0  0  0  0  0  0  0  0
   -2.1030   -3.4478   -0.0324 H   0  0  0  0  0  0  0  0  0  0  0  0
   -0.8689   -3.0178    1.1853 H   0  0  0  0  0  0  0  0  0  0  0  0
   -2.2772   -1.9879    0.9847 H   0  0  0  0  0  0  0  0  0  0  0  0
    2.2810   -1.2643    2.0722 H   0  0  0  0  0  0  0  0  0  0  0  0
    3.7051   -1.3896    0.9978 H   0  0  0  0  0  0  0  0  0  0  0  0
    2.9995    0.1944    1.3856 H   0  0  0  0  0  0  0  0  0  0  0  0
    1.5203    3.6208    0.7869 H   0  0  0  0  0  0  0  0  0  0  0  0
    0.5691    2.5677    1.8775 H   0  0  0  0  0  0  0  0  0  0  0  0
    2.1481    2.0363    1.2951 H   0  0  0  0  0  0  0  0  0  0  0  0
   -0.3952    3.5879   -1.1178 H   0  0  0  0  0  0  0  0  0  0  0  0
   -1.0616    3.1330    0.4442 H   0  0  0  0  0  0  0  0  0  0  0  0
   -2.3992    1.8478    1.4382 H   0  0  0  0  0  0  0  0  0  0  0  0
   -3.8570    1.5325    0.4556 H   0  0  0  0  0  0  0  0  0  0  0  0
   -3.1213    0.2445    1.4544 H   0  0  0  0  0  0  0  0  0  0  0  0
   -1.2979    1.4717   -2.1274 H   0  0  0  0  0  0  0  0  0  0  0  0
   -2.5872    2.4471   -1.4181 H   0  0  0  0  0  0  0  0  0  0  0  0
   -3.3123    0.0775   -1.9459 H   0  0  0  0  0  0  0  0  0  0  0  0
   -3.4573   -0.8807   -0.4826 H   0  0  0  0  0  0  0  0  0  0  0  0
    0.0715   -3.6772   -1.1655 H   0  0  0  0  0  0  0  0  0  0  0  0
    0.5576   -2.2743   -2.1082 H   0  0  0  0  0  0  0  0  0  0  0  0
    2.4055   -2.9668   -0.5592 H   0  0  0  0  0  0  0  0  0  0  0  0
    1.3099   -2.8370    0.8192 H   0  0  0  0  0  0  0  0  0  0  0  0
    1.8822   -0.6942   -2.0792 H   0  0  0  0  0  0  0  0  0  0  0  0
    3.4692   -0.9588   -1.3555 H   0  0  0  0  0  0  0  0  0  0  0  0
    3.3450    1.2880   -2.1291 H   0  0  0  0  0  0  0  0  0  0  0  0
    3.3782    1.3936   -0.3965 H   0  0  0  0  0  0  0  0  0  0  0  0
    0.8960    1.5852   -2.2030 H   0  0  0  0  0  0  0  0  0  0  0  0
    1.7767    2.9715   -1.5565 H   0  0  0  0  0  0  0  0  0  0  0  0
   -1.0707   -0.8595   -2.4143 H   0  0  0  0  0  0  0  0  0  0  0  0
   -2.2039   -2.1967   -2.1677 H   0  0  0  0  0  0  0  0  0  0  0  0
   -0.3150   -0.1885    2.5475 Cl  0  0  0  0  0  0  0  0  0  0  0  0
  1 49  1  0  0  0  0
  2  9  1  1  0  0  0
  2  1  9  0  0  0  0
  3  6  1  1  0  0  0
  3  1  9  0  0  0  0
  4 13  1  1  0  0  0
  4  1  9  0  0  0  0
  5 16  1  1  0  0  0
  5  1  9  0  0  0  0
  6 27  1  0  0  0  0
  6 26  1  0  0  0  0
  7  3  1  0  0  0  0
  7 29  1  0  0  0  0
  8  7  1  0  0  0  0
  8  2  1  0  0  0  0
  9 30  1  0  0  0  0
  9 32  1  0  0  0  0
 10 11  1  0  0  0  0
 10  3  1  0  0  0  0
 11 12  1  0  0  0  0
 11 44  1  0  0  0  0
 12  4  1  0  0  0  0
 13 24  1  0  0  0  0
 13 22  1  0  0  0  0
 14 15  1  0  0  0  0
 14  5  1  0  0  0  0
 15 36  1  0  0  0  0
 15  2  1  0  0  0  0
 16 21  1  0  0  0  0
 16 20  1  0  0  0  0
 17  5  1  0  0  0  0
 17 18  1  0  0  0  0
 18  4  1  0  0  0  0
 18 40  1  0  0  0  0
 19 16  1  0  0  0  0
 23 13  1  0  0  0  0
 25  6  1  0  0  0  0
 28  7  1  0  0  0  0
 31  9  1  0  0  0  0
 33  8  1  0  0  0  0
 34  8  1  0  0  0  0
 35 15  1  0  0  0  0
 37 17  1  0  0  0  0
 38 17  1  0  0  0  0
 39 18  1  0  0  0  0
 41 12  1  0  0  0  0
 42 12  1  0  0  0  0
 43 11  1  0  0  0  0
 45 10  1  0  0  0  0
 46 10  1  0  0  0  0
 47 14  1  0  0  0  0
 48 14  1  0  0  0  0
M  CHG  1   1   2
M  END
$$$$
