
 OpenBabel02052520053D

 64 67  0  0  0  0  0  0  0  0999 V2000
    0.5155   -0.1151    0.0305 Fe  0  3  0  0  0  0  0  0  0  0  0  0
    0.6664   -1.6367   -1.3453 N   0  0  2  0  0  0  0  0  0  0  0  0
    1.0425    1.1708   -1.5577 N   0  0  2  0  0  0  0  0  0  0  0  0
    0.4475    1.2744    1.5694 N   0  0  1  0  0  0  0  0  0  0  0  0
    0.3530   -1.5833    1.4722 N   0  0  2  0  0  0  0  0  0  0  0  0
   -0.1052    1.9188   -2.1439 C   0  0  0  0  0  0  0  0  0  0  0  0
    1.6106    0.2747   -2.6475 C   0  0  0  0  0  0  0  0  0  0  0  0
    1.7675   -1.2091   -2.2613 C   0  0  0  0  0  0  0  0  0  0  0  0
   -0.5648   -1.8505   -2.1524 C   0  0  0  0  0  0  0  0  0  0  0  0
   -1.1908    0.1535   -0.4603 O   0  0  0  0  0  0  0  0  0  0  0  0
   -2.2992   -0.1667    0.4057 O   0  0  0  0  0  0  0  0  0  0  0  0
   -3.5592    0.2310   -0.2135 C   0  0  0  0  0  0  0  0  0  0  0  0
   -3.7804   -0.5338   -1.5203 C   0  0  0  0  0  0  0  0  0  0  0  0
    2.0656    2.1893   -1.1182 C   0  0  0  0  0  0  0  0  0  0  0  0
    1.7100    2.9858    0.1462 C   0  0  0  0  0  0  0  0  0  0  0  0
    1.6010    2.2367    1.4846 C   0  0  0  0  0  0  0  0  0  0  0  0
   -0.8087    2.0779    1.5848 C   0  0  0  0  0  0  0  0  0  0  0  0
    1.1795   -2.7158    0.9261 C   0  0  0  0  0  0  0  0  0  0  0  0
    0.9445   -2.9141   -0.5822 C   0  0  0  0  0  0  0  0  0  0  0  0
   -0.9936   -2.1105    1.8150 C   0  0  0  0  0  0  0  0  0  0  0  0
    0.9728   -0.9585    2.6868 C   0  0  0  0  0  0  0  0  0  0  0  0
    0.4718    0.4758    2.8560 C   0  0  0  0  0  0  0  0  0  0  0  0
   -4.5684   -0.2031    0.8552 C   0  0  0  0  0  0  0  0  0  0  0  0
   -3.6117    1.7437   -0.4424 C   0  0  0  0  0  0  0  0  0  0  0  0
   -0.8890   -2.9346    2.5319 H   0  0  0  0  0  0  0  0  0  0  0  0
   -1.6077   -1.3243    2.2428 H   0  0  0  0  0  0  0  0  0  0  0  0
   -1.4922   -2.4641    0.9142 H   0  0  0  0  0  0  0  0  0  0  0  0
   -1.6576    1.4085    1.6673 H   0  0  0  0  0  0  0  0  0  0  0  0
   -0.7871    2.7789    2.4289 H   0  0  0  0  0  0  0  0  0  0  0  0
   -0.9120    2.6333    0.6572 H   0  0  0  0  0  0  0  0  0  0  0  0
    0.2366    2.5187   -2.9967 H   0  0  0  0  0  0  0  0  0  0  0  0
   -0.8795    1.2269   -2.4647 H   0  0  0  0  0  0  0  0  0  0  0  0
   -0.5393    2.5773   -1.3955 H   0  0  0  0  0  0  0  0  0  0  0  0
    2.5864    0.6572   -2.9595 H   0  0  0  0  0  0  0  0  0  0  0  0
    0.9496    0.3584   -3.5128 H   0  0  0  0  0  0  0  0  0  0  0  0
   -0.7968   -0.9560   -2.7249 H   0  0  0  0  0  0  0  0  0  0  0  0
   -0.4103   -2.6917   -2.8401 H   0  0  0  0  0  0  0  0  0  0  0  0
   -1.4041   -2.0527   -1.4927 H   0  0  0  0  0  0  0  0  0  0  0  0
    2.7108   -1.3728   -1.7526 H   0  0  0  0  0  0  0  0  0  0  0  0
    1.7478   -1.8195   -3.1746 H   0  0  0  0  0  0  0  0  0  0  0  0
    1.8113   -3.4214   -1.0165 H   0  0  0  0  0  0  0  0  0  0  0  0
    0.0831   -3.5674   -0.7341 H   0  0  0  0  0  0  0  0  0  0  0  0
    0.7173   -1.5383    3.5834 H   0  0  0  0  0  0  0  0  0  0  0  0
    2.0511   -0.9706    2.5622 H   0  0  0  0  0  0  0  0  0  0  0  0
    1.0848    0.9933    3.6023 H   0  0  0  0  0  0  0  0  0  0  0  0
   -0.5507    0.4606    3.2376 H   0  0  0  0  0  0  0  0  0  0  0  0
    2.5149    1.6834    1.6820 H   0  0  0  0  0  0  0  0  0  0  0  0
    1.4668    2.9799    2.2832 H   0  0  0  0  0  0  0  0  0  0  0  0
    2.5276    3.7060    0.2760 H   0  0  0  0  0  0  0  0  0  0  0  0
    0.8195    3.5995   -0.0219 H   0  0  0  0  0  0  0  0  0  0  0  0
    3.0042    1.6663   -0.9654 H   0  0  0  0  0  0  0  0  0  0  0  0
    2.1995    2.9003   -1.9454 H   0  0  0  0  0  0  0  0  0  0  0  0
    2.2235   -2.4940    1.1142 H   0  0  0  0  0  0  0  0  0  0  0  0
    0.9240   -3.6452    1.4503 H   0  0  0  0  0  0  0  0  0  0  0  0
   -4.7762   -0.3147   -1.9183 H   0  0  0  0  0  0  0  0  0  0  0  0
   -3.0433   -0.2449   -2.2734 H   0  0  0  0  0  0  0  0  0  0  0  0
   -3.7117   -1.6135   -1.3515 H   0  0  0  0  0  0  0  0  0  0  0  0
   -4.5748    2.0187   -0.8841 H   0  0  0  0  0  0  0  0  0  0  0  0
   -3.5043    2.2908    0.4989 H   0  0  0  0  0  0  0  0  0  0  0  0
   -2.8214    2.0596   -1.1269 H   0  0  0  0  0  0  0  0  0  0  0  0
   -5.5831    0.0381    0.5242 H   0  0  0  0  0  0  0  0  0  0  0  0
   -4.5101   -1.2821    1.0305 H   0  0  0  0  0  0  0  0  0  0  0  0
   -4.3831    0.3172    1.8006 H   0  0  0  0  0  0  0  0  0  0  0  0
    2.9494   -0.3220    0.3822 Cl  0  0  0  0  0  0  0  0  0  0  0  0
  1 64  1  0  0  0  0
  2  9  1  6  0  0  0
  2 19  1  0  0  0  0
  2  1  9  0  0  0  0
  3  6  1  6  0  0  0
  3 14  1  0  0  0  0
  3  1  9  0  0  0  0
  4 17  1  6  0  0  0
  4 22  1  0  0  0  0
  4  1  9  0  0  0  0
  5 20  1  1  0  0  0
  5 21  1  0  0  0  0
  5  1  9  0  0  0  0
  6 33  1  0  0  0  0
  7  8  1  0  0  0  0
  7  3  1  0  0  0  0
  8 39  1  0  0  0  0
  8  2  1  0  0  0  0
  9 38  1  0  0  0  0
 10  1  1  0  0  0  0
 10 11  1  0  0  0  0
 12 11  1  0  0  0  0
 12 23  1  0  0  0  0
 13 57  1  0  0  0  0
 13 12  1  0  0  0  0
 14 51  1  0  0  0  0
 14 15  1  0  0  0  0
 15 49  1  0  0  0  0
 15 16  1  0  0  0  0
 16  4  1  0  0  0  0
 16 47  1  0  0  0  0
 16 48  1  0  0  0  0
 17 28  1  0  0  0  0
 17 29  1  0  0  0  0
 18 53  1  0  0  0  0
 18 54  1  0  0  0  0
 18  5  1  0  0  0  0
 19 18  1  0  0  0  0
 20 26  1  0  0  0  0
 20 25  1  0  0  0  0
 21 22  1  0  0  0  0
 21 43  1  0  0  0  0
 22 46  1  0  0  0  0
 22 45  1  0  0  0  0
 23 62  1  0  0  0  0
 23 63  1  0  0  0  0
 24 12  1  0  0  0  0
 24 59  1  0  0  0  0
 27 20  1  0  0  0  0
 30 17  1  0  0  0  0
 31  6  1  0  0  0  0
 32  6  1  0  0  0  0
 34  7  1  0  0  0  0
 35  7  1  0  0  0  0
 36  9  1  0  0  0  0
 37  9  1  0  0  0  0
 40  8  1  0  0  0  0
 41 19  1  0  0  0  0
 42 19  1  0  0  0  0
 44 21  1  0  0  0  0
 50 15  1  0  0  0  0
 52 14  1  0  0  0  0
 55 13  1  0  0  0  0
 56 13  1  0  0  0  0
 58 24  1  0  0  0  0
 60 24  1  0  0  0  0
 61 23  1  0  0  0  0
M  CHG  1   1   1
M  END
$$$$
