
 OpenBabel02052520053D

 64 67  0  0  0  0  0  0  0  0999 V2000
   -0.2544   -0.0766    0.0151 Fe  0  3  0  0  0  0  0  0  0  0  0  0
   -0.3947   -1.5350    1.4578 N   0  0  2  0  0  0  0  0  0  0  0  0
   -0.6564    1.2848    1.5717 N   0  0  2  0  0  0  0  0  0  0  0  0
   -0.2107    1.2401   -1.5835 N   0  0  1  0  0  0  0  0  0  0  0  0
   -0.2254   -1.6015   -1.3684 N   0  0  2  0  0  0  0  0  0  0  0  0
    0.5555    1.9815    2.0913 C   0  0  0  0  0  0  0  0  0  0  0  0
   -1.2382    0.4610    2.7128 C   0  0  0  0  0  0  0  0  0  0  0  0
   -1.4349   -1.0385    2.4090 C   0  0  0  0  0  0  0  0  0  0  0  0
    0.8655   -1.7589    2.2180 C   0  0  0  0  0  0  0  0  0  0  0  0
    1.4812    0.1420    0.4156 O   0  0  0  0  0  0  0  0  0  0  0  0
    2.5377   -0.2752   -0.4716 O   0  0  0  0  0  0  0  0  0  0  0  0
    3.8394    0.1096    0.0694 C   0  0  0  0  0  0  0  0  0  0  0  0
    4.0904   -0.5847    1.4095 C   0  0  0  0  0  0  0  0  0  0  0  0
   -1.6287    2.3567    1.1403 C   0  0  0  0  0  0  0  0  0  0  0  0
   -1.2808    3.0834   -0.1662 C   0  0  0  0  0  0  0  0  0  0  0  0
   -1.2951    2.2786   -1.4753 C   0  0  0  0  0  0  0  0  0  0  0  0
    1.0888    1.9639   -1.7023 C   0  0  0  0  0  0  0  0  0  0  0  0
   -1.0570   -2.6837   -0.7346 C   0  0  0  0  0  0  0  0  0  0  0  0
   -0.7463   -2.8340    0.7637 C   0  0  0  0  0  0  0  0  0  0  0  0
    1.0837   -2.1879   -1.7600 C   0  0  0  0  0  0  0  0  0  0  0  0
   -0.8890   -1.0098   -2.5766 C   0  0  0  0  0  0  0  0  0  0  0  0
   -0.3585    0.4000   -2.8367 C   0  0  0  0  0  0  0  0  0  0  0  0
    4.7814   -0.4273   -1.0137 C   0  0  0  0  0  0  0  0  0  0  0  0
    3.9581    1.6296    0.2030 C   0  0  0  0  0  0  0  0  0  0  0  0
    0.9124   -3.0344   -2.4365 H   0  0  0  0  0  0  0  0  0  0  0  0
    1.6981   -1.4404   -2.2525 H   0  0  0  0  0  0  0  0  0  0  0  0
    1.6187   -2.5236   -0.8736 H   0  0  0  0  0  0  0  0  0  0  0  0
    1.8913    1.2423   -1.8076 H   0  0  0  0  0  0  0  0  0  0  0  0
    1.0573    2.6337   -2.5709 H   0  0  0  0  0  0  0  0  0  0  0  0
    1.2793    2.5445   -0.8046 H   0  0  0  0  0  0  0  0  0  0  0  0
    0.2794    2.6282    2.9333 H   0  0  0  0  0  0  0  0  0  0  0  0
    1.3000    1.2575    2.4112 H   0  0  0  0  0  0  0  0  0  0  0  0
    0.9986    2.5884    1.3054 H   0  0  0  0  0  0  0  0  0  0  0  0
   -2.2048    0.8811    3.0020 H   0  0  0  0  0  0  0  0  0  0  0  0
   -0.5723    0.5784    3.5705 H   0  0  0  0  0  0  0  0  0  0  0  0
    1.1458   -0.8537    2.7507 H   0  0  0  0  0  0  0  0  0  0  0  0
    0.7151   -2.5712    2.9402 H   0  0  0  0  0  0  0  0  0  0  0  0
    1.6692   -2.0097    1.5314 H   0  0  0  0  0  0  0  0  0  0  0  0
   -2.4078   -1.2084    1.9613 H   0  0  0  0  0  0  0  0  0  0  0  0
   -1.3769   -1.6050    3.3484 H   0  0  0  0  0  0  0  0  0  0  0  0
   -1.6019   -3.2989    1.2629 H   0  0  0  0  0  0  0  0  0  0  0  0
    0.1051   -3.5043    0.8959 H   0  0  0  0  0  0  0  0  0  0  0  0
   -0.6993   -1.6369   -3.4575 H   0  0  0  0  0  0  0  0  0  0  0  0
   -1.9593   -0.9827   -2.3964 H   0  0  0  0  0  0  0  0  0  0  0  0
   -1.0143    0.9113   -3.5495 H   0  0  0  0  0  0  0  0  0  0  0  0
    0.6293    0.3400   -3.2971 H   0  0  0  0  0  0  0  0  0  0  0  0
   -2.2518    1.7783   -1.5988 H   0  0  0  0  0  0  0  0  0  0  0  0
   -1.1614    2.9791   -2.3115 H   0  0  0  0  0  0  0  0  0  0  0  0
   -2.0531    3.8536   -0.2847 H   0  0  0  0  0  0  0  0  0  0  0  0
   -0.3427    3.6380   -0.0654 H   0  0  0  0  0  0  0  0  0  0  0  0
   -2.6063    1.8944    1.0471 H   0  0  0  0  0  0  0  0  0  0  0  0
   -1.6784    3.1012    1.9469 H   0  0  0  0  0  0  0  0  0  0  0  0
   -2.1021   -2.4308   -0.8727 H   0  0  0  0  0  0  0  0  0  0  0  0
   -0.8642   -3.6398   -1.2371 H   0  0  0  0  0  0  0  0  0  0  0  0
    5.1097   -0.3792    1.7513 H   0  0  0  0  0  0  0  0  0  0  0  0
    3.3981   -0.2245    2.1745 H   0  0  0  0  0  0  0  0  0  0  0  0
    3.9778   -1.6692    1.3098 H   0  0  0  0  0  0  0  0  0  0  0  0
    4.9507    1.8909    0.5831 H   0  0  0  0  0  0  0  0  0  0  0  0
    3.8269    2.1242   -0.7638 H   0  0  0  0  0  0  0  0  0  0  0  0
    3.2143    2.0169    0.9031 H   0  0  0  0  0  0  0  0  0  0  0  0
    5.8184   -0.2090   -0.7408 H   0  0  0  0  0  0  0  0  0  0  0  0
    4.6740   -1.5113   -1.1214 H   0  0  0  0  0  0  0  0  0  0  0  0
    4.5743    0.0446   -1.9797 H   0  0  0  0  0  0  0  0  0  0  0  0
   -3.0594   -0.2084   -0.2344 Br  0  0  0  0  0  0  0  0  0  0  0  0
  1 10  1  0  0  0  0
  2  9  1  1  0  0  0
  2  8  1  0  0  0  0
  2  1  9  0  0  0  0
  3  6  1  1  0  0  0
  3  7  1  0  0  0  0
  3  1  9  0  0  0  0
  4 17  1  6  0  0  0
  4 16  1  0  0  0  0
  4  1  9  0  0  0  0
  5 20  1  6  0  0  0
  5 18  1  0  0  0  0
  5  1  9  0  0  0  0
  6 32  1  0  0  0  0
  6 31  1  0  0  0  0
  7 34  1  0  0  0  0
  7 35  1  0  0  0  0
  8  7  1  0  0  0  0
  8 40  1  0  0  0  0
  9 36  1  0  0  0  0
  9 37  1  0  0  0  0
 11 12  1  0  0  0  0
 11 10  1  0  0  0  0
 12 24  1  0  0  0  0
 12 13  1  0  0  0  0
 13 55  1  0  0  0  0
 13 56  1  0  0  0  0
 14  3  1  0  0  0  0
 14 52  1  0  0  0  0
 15 50  1  0  0  0  0
 15 14  1  0  0  0  0
 16 15  1  0  0  0  0
 17 30  1  0  0  0  0
 18 19  1  0  0  0  0
 19 42  1  0  0  0  0
 19 41  1  0  0  0  0
 19  2  1  0  0  0  0
 20 27  1  0  0  0  0
 21 44  1  0  0  0  0
 21  5  1  0  0  0  0
 22 21  1  0  0  0  0
 22  4  1  0  0  0  0
 23 61  1  0  0  0  0
 23 12  1  0  0  0  0
 24 58  1  0  0  0  0
 24 60  1  0  0  0  0
 25 20  1  0  0  0  0
 26 20  1  0  0  0  0
 28 17  1  0  0  0  0
 29 17  1  0  0  0  0
 33  6  1  0  0  0  0
 38  9  1  0  0  0  0
 39  8  1  0  0  0  0
 43 21  1  0  0  0  0
 45 22  1  0  0  0  0
 46 22  1  0  0  0  0
 47 16  1  0  0  0  0
 48 16  1  0  0  0  0
 49 15  1  0  0  0  0
 51 14  1  0  0  0  0
 53 18  1  0  0  0  0
 54 18  1  0  0  0  0
 57 13  1  0  0  0  0
 59 24  1  0  0  0  0
 62 23  1  0  0  0  0
 63 23  1  0  0  0  0
 64  1  1  0  0  0  0
M  CHG  1   1   1
M  END
$$$$
