
 OpenBabel02052520053D

 52 57  0  0  0  0  0  0  0  0999 V2000
    0.0327    0.3218   -0.6752 Fe  0  1  0  0  0  0  0  0  0  0  0  0
   -1.8340   -0.3104   -0.9477 N   0  0  0  0  0  0  0  0  0  0  0  0
   -0.6552    0.5180    1.3599 N   0  0  0  0  0  0  0  0  0  0  0  0
    1.8618    0.9597   -0.2382 N   0  0  0  0  0  2  0  0  0  0  0  0
   -2.3329   -0.6836   -2.1345 C   0  0  0  0  0  0  0  0  0  0  0  0
   -3.6995   -0.9428   -2.3181 C   0  0  0  0  0  0  0  0  0  0  0  0
   -4.5752   -0.7878   -1.2463 C   0  0  0  0  0  0  0  0  0  0  0  0
   -4.0651   -0.3831    0.0096 C   0  0  0  0  0  0  0  0  0  0  0  0
   -4.8739   -0.1800    1.1616 C   0  0  0  0  0  0  0  0  0  0  0  0
   -4.2975    0.2407    2.3704 C   0  0  0  0  0  0  0  0  0  0  0  0
   -2.9179    0.4678    2.4645 C   0  0  0  0  0  0  0  0  0  0  0  0
   -2.1000    0.2836    1.3455 C   0  0  0  0  0  0  0  0  0  0  0  0
   -2.6657   -0.1498    0.1186 C   0  0  0  0  0  0  0  0  0  0  0  0
   -1.6199   -0.7721   -2.9460 H   0  0  0  0  0  0  0  0  0  0  0  0
   -4.0545   -1.2505   -3.2964 H   0  0  0  0  0  0  0  0  0  0  0  0
   -5.6399   -0.9677   -1.3711 H   0  0  0  0  0  0  0  0  0  0  0  0
   -5.9455   -0.3517    1.1005 H   0  0  0  0  0  0  0  0  0  0  0  0
   -4.9267    0.3942    3.2419 H   0  0  0  0  0  0  0  0  0  0  0  0
   -2.5012    0.7948    3.4114 H   0  0  0  0  0  0  0  0  0  0  0  0
    2.3344    2.2091   -0.3661 C   0  0  0  0  0  0  0  0  0  0  0  0
    3.6946    2.5145   -0.2044 C   0  0  0  0  0  0  0  0  0  0  0  0
    4.5940    1.4957    0.0818 C   0  0  0  0  0  0  0  0  0  0  0  0
    4.1200    0.1685    0.2142 C   0  0  0  0  0  0  0  0  0  0  0  0
    4.9661   -0.9379    0.4999 C   0  0  0  0  0  0  0  0  0  0  0  0
    4.4348   -2.2248    0.6155 C   0  0  0  0  0  0  0  0  0  0  0  0
    3.0579   -2.4446    0.4515 C   0  0  0  0  0  0  0  0  0  0  0  0
    2.2062   -1.3792    0.1621 C   0  0  0  0  0  0  0  0  0  0  0  0
    2.7249   -0.0653    0.0451 C   0  0  2  0  0  3  0  0  0  0  0  0
    1.6119    2.9781   -0.6112 H   0  0  0  0  0  0  0  0  0  0  0  0
    4.0210    3.5433   -0.3170 H   0  0  0  0  0  0  0  0  0  0  0  0
    5.6536    1.7084    0.1991 H   0  0  0  0  0  0  0  0  0  0  0  0
    6.0325   -0.7733    0.6286 H   0  0  0  0  0  0  0  0  0  0  0  0
    5.0888   -3.0635    0.8331 H   0  0  0  0  0  0  0  0  0  0  0  0
    2.6713   -3.4540    0.5481 H   0  0  0  0  0  0  0  0  0  0  0  0
    0.7635   -1.5451   -0.0288 N   0  0  0  0  0  0  0  0  0  0  0  0
    0.0720   -1.8411    1.2774 C   0  0  0  0  0  0  0  0  0  0  0  0
    0.0529   -0.5847    2.1198 C   0  0  0  0  0  0  0  0  0  0  0  0
   -0.9400   -2.1770    1.0375 H   0  0  0  0  0  0  0  0  0  0  0  0
    0.5820   -2.6577    1.7989 H   0  0  0  0  0  0  0  0  0  0  0  0
   -0.4405   -0.7572    3.0816 H   0  0  0  0  0  0  0  0  0  0  0  0
    1.0665   -0.2282    2.3208 H   0  0  0  0  0  0  0  0  0  0  0  0
    0.4724   -2.6236   -1.0318 C   0  0  0  0  0  0  0  0  0  0  0  0
    1.0294   -2.4222   -1.9450 H   0  0  0  0  0  0  0  0  0  0  0  0
   -0.5972   -2.6141   -1.2410 H   0  0  0  0  0  0  0  0  0  0  0  0
    0.7447   -3.6026   -0.6277 H   0  0  0  0  0  0  0  0  0  0  0  0
   -0.3338    1.8478    1.9901 C   0  0  0  0  0  0  0  0  0  0  0  0
   -0.9482    2.6228    1.5356 H   0  0  0  0  0  0  0  0  0  0  0  0
    0.7191    2.0605    1.8097 H   0  0  0  0  0  0  0  0  0  0  0  0
   -0.5070    1.8079    3.0692 H   0  0  0  0  0  0  0  0  0  0  0  0
    0.5199   -0.1098   -2.2879 O   0  0  0  0  0  0  0  0  0  0  0  0
    0.6094    0.6559   -2.8948 H   0  0  0  0  0  0  0  0  0  0  0  0
   -0.7579    2.3344   -1.1930 Cl  0  0  0  0  0  0  0  0  0  0  0  0
  2 13  1  0  0  0  0
  2  1  9  0  0  0  0
  3 46  1  0  0  0  0
  3 37  1  0  0  0  0
  3  1  9  0  0  0  0
  5  2  2  0  0  0  0
  6  5  1  0  0  0  0
  6  7  2  0  0  0  0
  7  8  1  0  0  0  0
  8 13  2  0  0  0  0
  8  9  1  0  0  0  0
  9 10  2  0  0  0  0
 10 11  1  0  0  0  0
 10 18  1  0  0  0  0
 11 19  1  0  0  0  0
 12  3  1  0  0  0  0
 12 11  2  0  0  0  0
 13 12  1  0  0  0  0
 14  5  1  0  0  0  0
 15  6  1  0  0  0  0
 16  7  1  0  0  0  0
 17  9  1  0  0  0  0
 20  4  1  0  0  0  0
 20 21  2  0  0  0  0
 21 22  1  0  0  0  0
 22 31  1  0  0  0  0
 22 23  2  0  0  0  0
 23 24  1  0  0  0  0
 24 25  2  0  0  0  0
 24 32  1  0  0  0  0
 25 33  1  0  0  0  0
 26 34  1  0  0  0  0
 26 25  1  0  0  0  0
 27 26  2  0  0  0  0
 28  4  1  6  0  0  0
 28 27  1  0  0  0  0
 28 23  1  0  0  0  0
 29 20  1  0  0  0  0
 30 21  1  0  0  0  0
 35 27  1  0  0  0  0
 35 36  1  0  0  0  0
 35  1  9  0  0  0  0
 36 39  1  0  0  0  0
 36 37  1  0  0  0  0
 37 41  1  0  0  0  0
 37 40  1  0  0  0  0
 38 36  1  0  0  0  0
 42 45  1  0  0  0  0
 42 35  1  0  0  0  0
 43 42  1  0  0  0  0
 44 42  1  0  0  0  0
 46 49  1  0  0  0  0
 47 46  1  0  0  0  0
 48 46  1  0  0  0  0
 50  1  1  0  0  0  0
 51 50  1  0  0  0  0
 52  1  1  0  0  0  0
M  RAD  2   4   2  28   2
M  CHG  1   1   3
M  END
$$$$
