
 OpenBabel02052520053D

 52 57  0  0  0  0  0  0  0  0999 V2000
   -0.0321   -0.2347    1.1716 Fe  0  1  0  0  0  0  0  0  0  0  0  0
    1.8877   -0.8792    0.4506 N   0  0  0  0  0  2  0  0  0  0  0  0
    0.9352    1.5064   -0.8532 N   0  0  0  0  0  0  0  0  0  0  0  0
   -1.8853    0.7502    0.6950 N   0  0  0  0  0  0  0  0  0  0  0  0
    2.3534   -2.0135    1.0090 C   0  0  0  0  0  0  0  0  0  0  0  0
    3.6967   -2.4035    0.9499 C   0  0  0  0  0  0  0  0  0  0  0  0
    4.6068   -1.5520    0.3439 C   0  0  0  0  0  0  0  0  0  0  0  0
    4.1518   -0.3337   -0.2150 C   0  0  0  0  0  0  0  0  0  0  0  0
    5.0645    0.6442   -0.7061 C   0  0  0  0  0  0  0  0  0  0  0  0
    4.6103    1.9061   -1.1034 C   0  0  0  0  0  0  0  0  0  0  0  0
    3.2518    2.2002   -1.0758 C   0  0  0  0  0  0  0  0  0  0  0  0
    2.2880    1.2173   -0.7249 C   0  0  0  0  0  0  0  0  0  0  0  0
    2.7557   -0.0480   -0.1900 C   0  0  2  0  0  3  0  0  0  0  0  0
    1.6187   -2.6081    1.5418 H   0  0  0  0  0  0  0  0  0  0  0  0
    4.0087   -3.3357    1.4094 H   0  0  0  0  0  0  0  0  0  0  0  0
    5.6663   -1.7939    0.3218 H   0  0  0  0  0  0  0  0  0  0  0  0
    6.1264    0.4130   -0.7320 H   0  0  0  0  0  0  0  0  0  0  0  0
    5.3149    2.6504   -1.4614 H   0  0  0  0  0  0  0  0  0  0  0  0
    2.9220    3.1704   -1.4293 H   0  0  0  0  0  0  0  0  0  0  0  0
   -2.2959    1.8020    1.4272 C   0  0  0  0  0  0  0  0  0  0  0  0
   -3.6162    2.2724    1.3901 C   0  0  0  0  0  0  0  0  0  0  0  0
   -4.5465    1.6099    0.5930 C   0  0  0  0  0  0  0  0  0  0  0  0
   -4.1316    0.4917   -0.1689 C   0  0  0  0  0  0  0  0  0  0  0  0
   -5.0368   -0.3296   -0.8990 C   0  0  0  0  0  0  0  0  0  0  0  0
   -4.5872   -1.5105   -1.5241 C   0  0  0  0  0  0  0  0  0  0  0  0
   -3.2491   -1.8871   -1.4574 C   0  0  0  0  0  0  0  0  0  0  0  0
   -2.2966   -1.0496   -0.8293 C   0  0  0  0  0  0  0  0  0  0  0  0
   -2.7618    0.1148   -0.1153 C   0  0  0  0  0  0  0  0  0  0  0  0
   -1.5413    2.2446    2.0698 H   0  0  0  0  0  0  0  0  0  0  0  0
   -3.9028    3.1218    2.0021 H   0  0  0  0  0  0  0  0  0  0  0  0
   -5.5855    1.9291    0.5712 H   0  0  0  0  0  0  0  0  0  0  0  0
   -6.0902   -0.0626   -0.9399 H   0  0  0  0  0  0  0  0  0  0  0  0
   -5.2914   -2.1248   -2.0777 H   0  0  0  0  0  0  0  0  0  0  0  0
   -2.9338   -2.7944   -1.9597 H   0  0  0  0  0  0  0  0  0  0  0  0
   -0.9100   -1.3325   -0.8350 N   0  0  0  0  0  0  0  0  0  0  0  0
   -0.0733   -0.6658   -1.9138 C   0  0  0  0  0  0  0  0  0  0  0  0
    0.0599    0.8495   -1.8800 C   0  0  0  0  0  0  0  0  0  0  0  0
    0.9019   -1.1473   -1.8670 H   0  0  0  0  0  0  0  0  0  0  0  0
   -0.5187   -0.9258   -2.8818 H   0  0  0  0  0  0  0  0  0  0  0  0
    0.4529    1.1499   -2.8610 H   0  0  0  0  0  0  0  0  0  0  0  0
   -0.9194    1.3168   -1.7765 H   0  0  0  0  0  0  0  0  0  0  0  0
   -0.6070   -2.7934   -0.7996 C   0  0  0  0  0  0  0  0  0  0  0  0
   -1.2004   -3.2621   -0.0155 H   0  0  0  0  0  0  0  0  0  0  0  0
    0.4485   -2.9074   -0.5570 H   0  0  0  0  0  0  0  0  0  0  0  0
   -0.7843   -3.2699   -1.7703 H   0  0  0  0  0  0  0  0  0  0  0  0
    0.5355    2.9109   -0.6159 C   0  0  0  0  0  0  0  0  0  0  0  0
    1.1309    3.3300    0.1939 H   0  0  0  0  0  0  0  0  0  0  0  0
   -0.5118    2.9078   -0.3097 H   0  0  0  0  0  0  0  0  0  0  0  0
    0.6247    3.5185   -1.5249 H   0  0  0  0  0  0  0  0  0  0  0  0
   -0.5560   -1.6609    2.1165 O   0  0  0  0  0  0  0  0  0  0  0  0
   -0.6213   -1.7121    3.0890 H   0  0  0  0  0  0  0  0  0  0  0  0
    0.5268    1.1860    2.0446 F   0  0  0  0  0  0  0  0  0  0  0  0
  1 52  1  0  0  0  0
  1 50  1  0  0  0  0
  2  5  1  0  0  0  0
  3 12  1  0  0  0  0
  3 46  1  0  0  0  0
  3  1  9  0  0  0  0
  4 20  2  0  0  0  0
  4  1  9  0  0  0  0
  5 14  1  0  0  0  0
  6  5  2  0  0  0  0
  6 15  1  0  0  0  0
  7  6  1  0  0  0  0
  8  7  2  0  0  0  0
  9  8  1  0  0  0  0
 10 11  1  0  0  0  0
 10  9  2  0  0  0  0
 11 12  2  0  0  0  0
 12 13  1  0  0  0  0
 13  8  1  1  0  0  0
 13  2  1  0  0  0  0
 16  7  1  0  0  0  0
 17  9  1  0  0  0  0
 18 10  1  0  0  0  0
 19 11  1  0  0  0  0
 20 29  1  0  0  0  0
 21 20  1  0  0  0  0
 21 30  1  0  0  0  0
 22 21  2  0  0  0  0
 23 28  2  0  0  0  0
 23 22  1  0  0  0  0
 24 23  1  0  0  0  0
 25 26  1  0  0  0  0
 25 24  2  0  0  0  0
 26 27  2  0  0  0  0
 27 28  1  0  0  0  0
 28  4  1  0  0  0  0
 31 22  1  0  0  0  0
 32 24  1  0  0  0  0
 33 25  1  0  0  0  0
 34 26  1  0  0  0  0
 35 27  1  0  0  0  0
 35 42  1  0  0  0  0
 35  1  9  0  0  0  0
 36 37  1  0  0  0  0
 36 38  1  0  0  0  0
 36 35  1  0  0  0  0
 37 41  1  0  0  0  0
 37  3  1  0  0  0  0
 39 36  1  0  0  0  0
 40 37  1  0  0  0  0
 42 44  1  0  0  0  0
 42 43  1  0  0  0  0
 45 42  1  0  0  0  0
 46 48  1  0  0  0  0
 46 47  1  0  0  0  0
 49 46  1  0  0  0  0
 50 51  1  0  0  0  0
M  RAD  2   2   2  13   2
M  CHG  1   1   3
M  END
$$$$
