
 OpenBabel02052520053D

 53 60  0  0  0  0  0  0  0  0999 V2000
    0.0764   -0.0008    0.4804 Fe  0  2  0  0  0  0  0  0  0  0  0  0
   -0.2648    0.0013   -1.7594 N   0  0  1  0  0  0  0  0  0  0  0  0
   -1.5354    1.4324    0.1792 N   0  0  0  0  0  0  0  0  0  0  0  0
   -1.5361   -1.4325    0.1768 N   0  0  0  0  0  0  0  0  0  0  0  0
    1.4900    1.4598   -0.1893 N   0  0  0  0  0  0  0  0  0  0  0  0
    1.4901   -1.4601   -0.1921 N   0  0  0  0  0  0  0  0  0  0  0  0
   -1.8758    2.4449    0.9909 C   0  0  0  0  0  0  0  0  0  0  0  0
   -2.9322    3.3033    0.6889 C   0  0  0  0  0  0  0  0  0  0  0  0
   -3.6450    3.0979   -0.4926 C   0  0  0  0  0  0  0  0  0  0  0  0
   -3.2857    2.0407   -1.3374 C   0  0  0  0  0  0  0  0  0  0  0  0
   -2.2245    1.2271   -0.9634 C   0  0  0  0  0  0  0  0  0  0  0  0
   -1.7630    0.0016   -1.7447 C   0  0  2  0  0  0  0  0  0  0  0  0
   -2.2251   -1.2249   -0.9654 C   0  0  0  0  0  0  0  0  0  0  0  0
   -3.2869   -2.0372   -1.3407 C   0  0  0  0  0  0  0  0  0  0  0  0
   -3.6468   -3.0956   -0.4976 C   0  0  0  0  0  0  0  0  0  0  0  0
   -2.9340   -3.3033    0.6836 C   0  0  0  0  0  0  0  0  0  0  0  0
   -1.8770   -2.4461    0.9869 C   0  0  0  0  0  0  0  0  0  0  0  0
    2.4550    1.9517    0.6115 C   0  0  0  0  0  0  0  0  0  0  0  0
    3.4778    2.7583    0.1265 C   0  0  0  0  0  0  0  0  0  0  0  0
    3.5047    3.0499   -1.2391 C   0  0  0  0  0  0  0  0  0  0  0  0
    2.5057    2.5338   -2.0672 C   0  0  0  0  0  0  0  0  0  0  0  0
    1.5036    1.7450   -1.5077 C   0  0  0  0  0  0  0  0  0  0  0  0
    0.3338    1.2387   -2.3280 C   0  0  0  0  0  0  0  0  0  0  0  0
    0.3333   -1.2355   -2.3300 C   0  0  0  0  0  0  0  0  0  0  0  0
    1.5036   -1.7427   -1.5110 C   0  0  0  0  0  0  0  0  0  0  0  0
    2.5060   -2.5298   -2.0722 C   0  0  0  0  0  0  0  0  0  0  0  0
    3.5054   -3.0469   -1.2453 C   0  0  0  0  0  0  0  0  0  0  0  0
    3.4786   -2.7580    0.1208 C   0  0  0  0  0  0  0  0  0  0  0  0
    2.4554   -1.9530    0.6076 C   0  0  0  0  0  0  0  0  0  0  0  0
   -1.2839    2.5524    1.8940 H   0  0  0  0  0  0  0  0  0  0  0  0
   -3.1850    4.1108    1.3673 H   0  0  0  0  0  0  0  0  0  0  0  0
   -4.4704    3.7513   -0.7582 H   0  0  0  0  0  0  0  0  0  0  0  0
   -3.8201    1.8577   -2.2642 H   0  0  0  0  0  0  0  0  0  0  0  0
   -2.1887    0.0026   -2.7551 H   0  0  0  0  0  0  0  0  0  0  0  0
   -3.8211   -1.8524   -2.2672 H   0  0  0  0  0  0  0  0  0  0  0  0
   -4.4725   -3.7480   -0.7642 H   0  0  0  0  0  0  0  0  0  0  0  0
   -3.1873   -4.1118    1.3606 H   0  0  0  0  0  0  0  0  0  0  0  0
   -1.2852   -2.5554    1.8897 H   0  0  0  0  0  0  0  0  0  0  0  0
    2.3860    1.6749    1.6580 H   0  0  0  0  0  0  0  0  0  0  0  0
    4.2352    3.1405    0.8020 H   0  0  0  0  0  0  0  0  0  0  0  0
    4.2936    3.6686   -1.6555 H   0  0  0  0  0  0  0  0  0  0  0  0
    2.5018    2.7448   -3.1320 H   0  0  0  0  0  0  0  0  0  0  0  0
    2.5021   -2.7388   -3.1375 H   0  0  0  0  0  0  0  0  0  0  0  0
    4.2947   -3.6644   -1.6630 H   0  0  0  0  0  0  0  0  0  0  0  0
    4.2363   -3.1412    0.7955 H   0  0  0  0  0  0  0  0  0  0  0  0
    2.3864   -1.6782    1.6547 H   0  0  0  0  0  0  0  0  0  0  0  0
    0.6342    1.0825   -3.3699 H   0  0  0  0  0  0  0  0  0  0  0  0
   -0.4312    2.0213   -2.3386 H   0  0  0  0  0  0  0  0  0  0  0  0
    0.6328   -1.0781   -3.3720 H   0  0  0  0  0  0  0  0  0  0  0  0
   -0.4318   -2.0179   -2.3409 H   0  0  0  0  0  0  0  0  0  0  0  0
    0.3222   -0.0026    2.3329 N   0  0  0  0  0  0  0  0  0  0  0  0
    0.4237   -0.0038    3.5398 C   0  0  0  0  0  0  0  0  0  0  0  0
    0.5614   -0.0054    5.1116 S   0  0  0  0  0  0  0  0  0  0  0  0
  1 51  1  0  0  0  0
  2 24  1  6  0  0  0
  2 12  1  0  0  0  0
  2  1  9  0  0  0  0
  3  7  1  0  0  0  0
  3  1  9  0  0  0  0
  4 17  1  0  0  0  0
  4  1  9  0  0  0  0
  5 18  1  0  0  0  0
  5  1  9  0  0  0  0
  6 29  1  0  0  0  0
  6  1  9  0  0  0  0
  7 30  1  0  0  0  0
  8  7  2  0  0  0  0
  8 31  1  0  0  0  0
  9  8  1  0  0  0  0
 10 11  1  0  0  0  0
 10  9  2  0  0  0  0
 11  3  2  0  0  0  0
 12 34  1  6  0  0  0
 12 13  1  0  0  0  0
 12 11  1  0  0  0  0
 13  4  2  0  0  0  0
 14 13  1  0  0  0  0
 14 15  2  0  0  0  0
 15 16  1  0  0  0  0
 16 17  2  0  0  0  0
 16 37  1  0  0  0  0
 17 38  1  0  0  0  0
 18 39  1  0  0  0  0
 19 18  2  0  0  0  0
 19 40  1  0  0  0  0
 20 19  1  0  0  0  0
 21 22  1  0  0  0  0
 21 20  2  0  0  0  0
 22  5  2  0  0  0  0
 23  2  1  0  0  0  0
 23 22  1  0  0  0  0
 24 25  1  0  0  0  0
 25  6  2  0  0  0  0
 26 25  1  0  0  0  0
 26 27  2  0  0  0  0
 27 28  1  0  0  0  0
 28 29  2  0  0  0  0
 28 45  1  0  0  0  0
 29 46  1  0  0  0  0
 32  9  1  0  0  0  0
 33 10  1  0  0  0  0
 35 14  1  0  0  0  0
 36 15  1  0  0  0  0
 41 20  1  0  0  0  0
 42 21  1  0  0  0  0
 43 26  1  0  0  0  0
 44 27  1  0  0  0  0
 47 23  1  0  0  0  0
 48 23  1  0  0  0  0
 49 24  1  0  0  0  0
 50 24  1  0  0  0  0
 51 52  2  0  0  0  0
 52 53  2  0  0  0  0
M  CHG  1   1   2
M  END
$$$$
