
 OpenBabel02052520053D

 51 58  0  0  0  0  0  0  0  0999 V2000
   -0.0743   -0.0003   -0.8931 Fe  0  2  0  0  0  0  0  0  0  0  0  0
    0.1311   -0.0003    1.3758 N   0  0  1  0  0  0  0  0  0  0  0  0
    1.5034    1.4183   -0.5164 N   0  0  0  0  0  0  0  0  0  0  0  0
    1.5039   -1.4182   -0.5166 N   0  0  0  0  0  0  0  0  0  0  0  0
   -1.4924    1.4595   -0.3145 N   0  0  0  0  0  0  0  0  0  0  0  0
   -1.4924   -1.4600   -0.3144 N   0  0  0  0  0  0  0  0  0  0  0  0
    1.8814    2.4228   -1.3226 C   0  0  0  0  0  0  0  0  0  0  0  0
    2.9161    3.2885   -0.9703 C   0  0  0  0  0  0  0  0  0  0  0  0
    3.5608    3.0998    0.2525 C   0  0  0  0  0  0  0  0  0  0  0  0
    3.1606    2.0497    1.0891 C   0  0  0  0  0  0  0  0  0  0  0  0
    2.1274    1.2252    0.6661 C   0  0  0  0  0  0  0  0  0  0  0  0
    1.6302   -0.0000    1.4274 C   0  0  2  0  0  0  0  0  0  0  0  0
    2.1279   -1.2250    0.6660 C   0  0  0  0  0  0  0  0  0  0  0  0
    3.1613   -2.0491    1.0888 C   0  0  0  0  0  0  0  0  0  0  0  0
    3.5620   -3.0989    0.2521 C   0  0  0  0  0  0  0  0  0  0  0  0
    2.9173   -3.2877   -0.9707 C   0  0  0  0  0  0  0  0  0  0  0  0
    1.8822   -2.4225   -1.3228 C   0  0  0  0  0  0  0  0  0  0  0  0
   -2.3788    1.9531   -1.2019 C   0  0  0  0  0  0  0  0  0  0  0  0
   -3.4143    2.7921   -0.8075 C   0  0  0  0  0  0  0  0  0  0  0  0
   -3.5356    3.1094    0.5477 C   0  0  0  0  0  0  0  0  0  0  0  0
   -2.6163    2.5870    1.4611 C   0  0  0  0  0  0  0  0  0  0  0  0
   -1.5940    1.7653    0.9947 C   0  0  0  0  0  0  0  0  0  0  0  0
   -0.4995    1.2404    1.9046 C   0  0  0  0  0  0  0  0  0  0  0  0
   -0.4991   -1.2412    1.9045 C   0  0  0  0  0  0  0  0  0  0  0  0
   -1.5940   -1.7657    0.9948 C   0  0  0  0  0  0  0  0  0  0  0  0
   -2.6166   -2.5869    1.4615 C   0  0  0  0  0  0  0  0  0  0  0  0
   -3.5362   -3.1090    0.5482 C   0  0  0  0  0  0  0  0  0  0  0  0
   -3.4149   -2.7919   -0.8071 C   0  0  0  0  0  0  0  0  0  0  0  0
   -2.3791   -1.9534   -1.2017 C   0  0  0  0  0  0  0  0  0  0  0  0
    1.3412    2.5151   -2.2594 H   0  0  0  0  0  0  0  0  0  0  0  0
    3.2047    4.0887   -1.6430 H   0  0  0  0  0  0  0  0  0  0  0  0
    4.3669    3.7604    0.5566 H   0  0  0  0  0  0  0  0  0  0  0  0
    3.6441    1.8804    2.0458 H   0  0  0  0  0  0  0  0  0  0  0  0
    2.0110    0.0000    2.4551 H   0  0  0  0  0  0  0  0  0  0  0  0
    3.6448   -1.8797    2.0456 H   0  0  0  0  0  0  0  0  0  0  0  0
    4.3684   -3.7593    0.5561 H   0  0  0  0  0  0  0  0  0  0  0  0
    3.2062   -4.0878   -1.6434 H   0  0  0  0  0  0  0  0  0  0  0  0
    1.3420   -2.5149   -2.2596 H   0  0  0  0  0  0  0  0  0  0  0  0
   -2.2306    1.6467   -2.2322 H   0  0  0  0  0  0  0  0  0  0  0  0
   -4.1101    3.1788   -1.5440 H   0  0  0  0  0  0  0  0  0  0  0  0
   -4.3387    3.7538    0.8918 H   0  0  0  0  0  0  0  0  0  0  0  0
   -2.6900    2.8187    2.5191 H   0  0  0  0  0  0  0  0  0  0  0  0
   -2.6903   -2.8184    2.5195 H   0  0  0  0  0  0  0  0  0  0  0  0
   -4.3396   -3.7531    0.8924 H   0  0  0  0  0  0  0  0  0  0  0  0
   -4.1109   -3.1784   -1.5435 H   0  0  0  0  0  0  0  0  0  0  0  0
   -2.2309   -1.6470   -2.2320 H   0  0  0  0  0  0  0  0  0  0  0  0
   -0.8868    1.0783    2.9162 H   0  0  0  0  0  0  0  0  0  0  0  0
    0.2702    2.0143    1.9867 H   0  0  0  0  0  0  0  0  0  0  0  0
   -0.8858   -1.0796    2.9164 H   0  0  0  0  0  0  0  0  0  0  0  0
    0.2707   -2.0150    1.9857 H   0  0  0  0  0  0  0  0  0  0  0  0
   -0.3772   -0.0003   -2.6259 F   0  0  0  0  0  0  0  0  0  0  0  0
  2 12  1  0  0  0  0
  2 24  1  1  0  0  0
  2 23  1  0  0  0  0
  2  1  9  0  0  0  0
  3 11  1  0  0  0  0
  3  1  9  0  0  0  0
  4 13  1  0  0  0  0
  4  1  9  0  0  0  0
  5 22  1  0  0  0  0
  5  1  9  0  0  0  0
  6 25  1  0  0  0  0
  6  1  9  0  0  0  0
  7  8  1  0  0  0  0
  7  3  2  0  0  0  0
  8  9  2  0  0  0  0
  9 32  1  0  0  0  0
  9 10  1  0  0  0  0
 10 33  1  0  0  0  0
 11 10  2  0  0  0  0
 11 12  1  0  0  0  0
 12 34  1  1  0  0  0
 13 14  2  0  0  0  0
 13 12  1  0  0  0  0
 14 35  1  0  0  0  0
 15 36  1  0  0  0  0
 15 14  1  0  0  0  0
 16 15  2  0  0  0  0
 17 16  1  0  0  0  0
 17  4  2  0  0  0  0
 18 19  1  0  0  0  0
 18  5  2  0  0  0  0
 19 20  2  0  0  0  0
 20 41  1  0  0  0  0
 20 21  1  0  0  0  0
 21 42  1  0  0  0  0
 22 21  2  0  0  0  0
 22 23  1  0  0  0  0
 23 48  1  0  0  0  0
 23 47  1  0  0  0  0
 24 50  1  0  0  0  0
 24 49  1  0  0  0  0
 25 26  2  0  0  0  0
 25 24  1  0  0  0  0
 26 43  1  0  0  0  0
 27 44  1  0  0  0  0
 27 26  1  0  0  0  0
 28 27  2  0  0  0  0
 29 28  1  0  0  0  0
 29  6  2  0  0  0  0
 30  7  1  0  0  0  0
 31  8  1  0  0  0  0
 37 16  1  0  0  0  0
 38 17  1  0  0  0  0
 39 18  1  0  0  0  0
 40 19  1  0  0  0  0
 45 28  1  0  0  0  0
 46 29  1  0  0  0  0
 51  1  1  0  0  0  0
M  CHG  1   1   2
M  END
$$$$
