
 OpenBabel02072512503D

 53 59  0  0  0  0  0  0  0  0999 V2000
    0.0648   -0.0004    0.6775 Fe  0  2  0  0  0  0  0  0  0  0  0  0
   -0.1022   -0.0002   -1.5759 N   0  0  2  0  0  0  0  0  0  0  0  0
   -1.5194    1.4379    0.2467 N   0  0  0  0  0  0  0  0  0  0  0  0
   -1.5203   -1.4376    0.2466 N   0  0  0  0  0  0  0  0  0  0  0  0
    1.5290    1.4567    0.1258 N   0  0  0  0  0  0  0  0  0  0  0  0
    1.5289   -1.4575    0.1254 N   0  0  0  0  0  0  0  0  0  0  0  0
   -1.9204    2.4572    1.0216 C   0  0  0  0  0  0  0  0  0  0  0  0
   -2.9500    3.3138    0.6346 C   0  0  0  0  0  0  0  0  0  0  0  0
   -3.5715    3.1001   -0.5961 C   0  0  0  0  0  0  0  0  0  0  0  0
   -3.1482    2.0378   -1.4039 C   0  0  0  0  0  0  0  0  0  0  0  0
   -2.1188    1.2269   -0.9444 C   0  0  0  0  0  0  0  0  0  0  0  0
   -1.5965    0.0003   -1.6837 C   0  0  2  0  0  0  0  0  0  0  0  0
   -2.1196   -1.2261   -0.9445 C   0  0  0  0  0  0  0  0  0  0  0  0
   -3.1496   -2.0362   -1.4040 C   0  0  0  0  0  0  0  0  0  0  0  0
   -3.5736   -3.0983   -0.5963 C   0  0  0  0  0  0  0  0  0  0  0  0
   -2.9522   -3.3125    0.6343 C   0  0  0  0  0  0  0  0  0  0  0  0
   -1.9220   -2.4567    1.0214 C   0  0  0  0  0  0  0  0  0  0  0  0
    2.4319    1.9474    0.9970 C   0  0  0  0  0  0  0  0  0  0  0  0
    3.4906    2.7513    0.5910 C   0  0  0  0  0  0  0  0  0  0  0  0
    3.6222    3.0418   -0.7687 C   0  0  0  0  0  0  0  0  0  0  0  0
    2.6882    2.5269   -1.6699 C   0  0  0  0  0  0  0  0  0  0  0  0
    1.6446    1.7408   -1.1880 C   0  0  0  0  0  0  0  0  0  0  0  0
    0.5408    1.2368   -2.0961 C   0  0  0  0  0  0  0  0  0  0  0  0
    0.5400   -1.2375   -2.0962 C   0  0  0  0  0  0  0  0  0  0  0  0
    1.6444   -1.7412   -1.1886 C   0  0  0  0  0  0  0  0  0  0  0  0
    2.6883   -2.5267   -1.6709 C   0  0  0  0  0  0  0  0  0  0  0  0
    3.6228   -3.0414   -0.7699 C   0  0  0  0  0  0  0  0  0  0  0  0
    3.4912   -2.7513    0.5899 C   0  0  0  0  0  0  0  0  0  0  0  0
    2.4322   -1.9481    0.9962 C   0  0  0  0  0  0  0  0  0  0  0  0
   -1.3978    2.5752    1.9651 H   0  0  0  0  0  0  0  0  0  0  0  0
   -3.2525    4.1265    1.2859 H   0  0  0  0  0  0  0  0  0  0  0  0
   -4.3740    3.7514   -0.9283 H   0  0  0  0  0  0  0  0  0  0  0  0
   -3.6091    1.8492   -2.3682 H   0  0  0  0  0  0  0  0  0  0  0  0
   -1.9378    0.0004   -2.7255 H   0  0  0  0  0  0  0  0  0  0  0  0
   -3.6105   -1.8471   -2.3683 H   0  0  0  0  0  0  0  0  0  0  0  0
   -4.3766   -3.7489   -0.9284 H   0  0  0  0  0  0  0  0  0  0  0  0
   -3.2553   -4.1250    1.2856 H   0  0  0  0  0  0  0  0  0  0  0  0
   -1.3994   -2.5752    1.9649 H   0  0  0  0  0  0  0  0  0  0  0  0
    2.2837    1.6713    2.0353 H   0  0  0  0  0  0  0  0  0  0  0  0
    4.1951    3.1323    1.3222 H   0  0  0  0  0  0  0  0  0  0  0  0
    4.4420    3.6585   -1.1241 H   0  0  0  0  0  0  0  0  0  0  0  0
    2.7660    2.7368   -2.7322 H   0  0  0  0  0  0  0  0  0  0  0  0
    2.7661   -2.7362   -2.7332 H   0  0  0  0  0  0  0  0  0  0  0  0
    4.4428   -3.6576   -1.1257 H   0  0  0  0  0  0  0  0  0  0  0  0
    4.1960   -3.1322    1.3209 H   0  0  0  0  0  0  0  0  0  0  0  0
    2.2840   -1.6724    2.0347 H   0  0  0  0  0  0  0  0  0  0  0  0
    0.9203    1.0797   -3.1117 H   0  0  0  0  0  0  0  0  0  0  0  0
   -0.2199    2.0204   -2.1657 H   0  0  0  0  0  0  0  0  0  0  0  0
    0.9187   -1.0810   -3.1122 H   0  0  0  0  0  0  0  0  0  0  0  0
   -0.2208   -2.0210   -2.1647 H   0  0  0  0  0  0  0  0  0  0  0  0
    0.1327   -0.0007    2.5305 N   0  0  0  0  0  0  0  0  0  0  0  0
   -0.0805   -0.0009    3.7260 N   0  3  0  0  0  0  0  0  0  0  0  0
   -0.2733   -0.0012    4.8562 N   0  5  0  0  0  0  0  0  0  0  0  0
  1 51  1  0  0  0  0
  2 24  1  6  0  0  0
  3  7  1  0  0  0  0
  3  1  9  0  0  0  0
  4 17  1  0  0  0  0
  4  1  9  0  0  0  0
  5 18  1  0  0  0  0
  5  1  9  0  0  0  0
  6 29  1  0  0  0  0
  6  1  9  0  0  0  0
  7 30  1  0  0  0  0
  8  7  2  0  0  0  0
  8 31  1  0  0  0  0
  9  8  1  0  0  0  0
 10 11  1  0  0  0  0
 10  9  2  0  0  0  0
 11  3  2  0  0  0  0
 12 34  1  6  0  0  0
 12  2  1  0  0  0  0
 12 13  1  0  0  0  0
 12 11  1  0  0  0  0
 13  4  2  0  0  0  0
 14 13  1  0  0  0  0
 14 15  2  0  0  0  0
 15 16  1  0  0  0  0
 16 17  2  0  0  0  0
 16 37  1  0  0  0  0
 17 38  1  0  0  0  0
 18 39  1  0  0  0  0
 19 18  2  0  0  0  0
 19 40  1  0  0  0  0
 20 19  1  0  0  0  0
 21 22  1  0  0  0  0
 21 20  2  0  0  0  0
 22  5  2  0  0  0  0
 23  2  1  0  0  0  0
 23 22  1  0  0  0  0
 24 25  1  0  0  0  0
 25  6  2  0  0  0  0
 26 25  1  0  0  0  0
 26 27  2  0  0  0  0
 27 28  1  0  0  0  0
 28 29  2  0  0  0  0
 28 45  1  0  0  0  0
 29 46  1  0  0  0  0
 32  9  1  0  0  0  0
 33 10  1  0  0  0  0
 35 14  1  0  0  0  0
 36 15  1  0  0  0  0
 41 20  1  0  0  0  0
 42 21  1  0  0  0  0
 43 26  1  0  0  0  0
 44 27  1  0  0  0  0
 47 23  1  0  0  0  0
 48 23  1  0  0  0  0
 49 24  1  0  0  0  0
 50 24  1  0  0  0  0
 51 52  2  0  0  0  0
 52 53  2  0  0  0  0
M  CHG  3   1   2  52   1  53  -1
M  END
$$$$
