
 OpenBabel02052520053D

 56 62  0  0  0  0  0  0  0  0999 V2000
   -0.0174    0.1192   -0.7379 Fe  0  2  0  0  0  0  0  0  0  0  0  0
    0.9908    1.8248   -0.1893 N   0  0  0  0  0  0  0  0  0  0  0  0
   -0.0130   -0.2418    1.4614 N   0  0  2  0  0  0  0  0  0  0  0  0
    1.9208   -0.8036   -0.4291 N   0  0  0  0  0  0  0  0  0  0  0  0
   -2.3390   -2.1357    0.4826 N   0  0  1  0  0  0  0  0  0  0  0  0
   -2.1254    0.8395   -0.4861 N   0  0  0  0  0  0  0  0  0  0  0  0
    1.5969    2.6318   -1.0808 C   0  0  0  0  0  0  0  0  0  0  0  0
    1.3003    2.4876   -2.1135 H   0  0  0  0  0  0  0  0  0  0  0  0
    2.5527    3.5635   -0.6897 C   0  0  0  0  0  0  0  0  0  0  0  0
    3.0138    4.2064   -1.4314 H   0  0  0  0  0  0  0  0  0  0  0  0
    2.9104    3.6330    0.6577 C   0  0  0  0  0  0  0  0  0  0  0  0
    3.6667    4.3363    0.9927 H   0  0  0  0  0  0  0  0  0  0  0  0
    2.2865    2.7831    1.5755 C   0  0  0  0  0  0  0  0  0  0  0  0
    2.5412    2.8172    2.6299 H   0  0  0  0  0  0  0  0  0  0  0  0
    1.3198    1.8946    1.1173 C   0  0  0  0  0  0  0  0  0  0  0  0
    0.4912    1.0544    2.0500 C   0  0  0  0  0  0  0  0  0  0  0  0
    1.0269    0.8557    2.9852 H   0  0  0  0  0  0  0  0  0  0  0  0
   -0.3891    1.6512    2.3110 H   0  0  0  0  0  0  0  0  0  0  0  0
    2.8908   -0.7981   -1.3566 C   0  0  0  0  0  0  0  0  0  0  0  0
    2.6110   -0.3958   -2.3243 H   0  0  0  0  0  0  0  0  0  0  0  0
    4.1693   -1.2740   -1.0795 C   0  0  0  0  0  0  0  0  0  0  0  0
    4.9308   -1.2674   -1.8517 H   0  0  0  0  0  0  0  0  0  0  0  0
    4.4413   -1.7496    0.2045 C   0  0  0  0  0  0  0  0  0  0  0  0
    5.4300   -2.1206    0.4562 H   0  0  0  0  0  0  0  0  0  0  0  0
    3.4276   -1.7454    1.1674 C   0  0  0  0  0  0  0  0  0  0  0  0
    3.6096   -2.1148    2.1717 H   0  0  0  0  0  0  0  0  0  0  0  0
    2.1711   -1.2713    0.8061 C   0  0  0  0  0  0  0  0  0  0  0  0
    0.9692   -1.3449    1.7171 C   0  0  0  0  0  0  0  0  0  0  0  0
    0.4680   -2.2944    1.5117 H   0  0  0  0  0  0  0  0  0  0  0  0
    1.2642   -1.3561    2.7740 H   0  0  0  0  0  0  0  0  0  0  0  0
   -1.3083   -0.5071    2.1731 C   0  0  0  0  0  0  0  0  0  0  0  0
   -1.9559    0.3410    1.9620 H   0  0  0  0  0  0  0  0  0  0  0  0
   -1.1219   -0.5138    3.2567 H   0  0  0  0  0  0  0  0  0  0  0  0
   -2.0691   -1.8126    1.8796 C   0  0  0  0  0  0  0  0  0  0  0  0
   -1.5617   -2.6718    2.3213 H   0  0  0  0  0  0  0  0  0  0  0  0
   -3.0327   -1.7154    2.3985 H   0  0  0  0  0  0  0  0  0  0  0  0
   -1.7445   -3.2559   -0.0992 C   0  0  0  0  0  0  0  0  0  0  0  0
   -2.3652   -3.7144   -0.8752 H   0  0  0  0  0  0  0  0  0  0  0  0
   -1.4019   -3.9915    0.6253 H   0  0  0  0  0  0  0  0  0  0  0  0
   -0.3986   -2.7511   -0.9739 C   0  0  0  0  0  0  0  0  0  0  0  0
    0.5285   -3.5204   -0.9335 O   0  0  0  0  0  0  0  0  0  0  0  0
   -0.6086   -1.6291   -1.5236 O   0  0  0  0  0  0  0  0  0  0  0  0
   -3.2834   -1.3589   -0.3312 C   0  0  0  0  0  0  0  0  0  0  0  0
   -4.2902   -1.7171   -0.0757 H   0  0  0  0  0  0  0  0  0  0  0  0
   -3.0943   -1.6274   -1.3734 H   0  0  0  0  0  0  0  0  0  0  0  0
   -3.2668    0.1546   -0.2238 C   0  0  0  0  0  0  0  0  0  0  0  0
   -4.4706    0.8149    0.0228 C   0  0  0  0  0  0  0  0  0  0  0  0
   -5.3678    0.2421    0.2348 H   0  0  0  0  0  0  0  0  0  0  0  0
   -4.5231    2.2102   -0.0286 C   0  0  0  0  0  0  0  0  0  0  0  0
   -5.4572    2.7322    0.1540 H   0  0  0  0  0  0  0  0  0  0  0  0
   -3.3579    2.9081   -0.3308 C   0  0  0  0  0  0  0  0  0  0  0  0
   -3.3445    3.9903   -0.4026 H   0  0  0  0  0  0  0  0  0  0  0  0
   -2.1880    2.1832   -0.5466 C   0  0  0  0  0  0  0  0  0  0  0  0
   -1.2600    2.6895   -0.7831 H   0  0  0  0  0  0  0  0  0  0  0  0
    0.1605    0.6453   -2.4197 O   0  0  0  0  0  0  0  0  0  0  0  0
   -0.1473   -0.0683   -3.0120 H   0  0  0  0  0  0  0  0  0  0  0  0
  2 15  1  0  0  0  0
  2  1  9  0  0  0  0
  3 28  1  1  0  0  0
  3 16  1  0  0  0  0
  3 31  1  0  0  0  0
  3  1  9  0  0  0  0
  4 27  1  0  0  0  0
  4  1  9  0  0  0  0
  5 43  1  1  0  0  0
  5 34  1  0  0  0  0
  6 46  1  0  0  0  0
  6  1  9  0  0  0  0
  7  9  1  0  0  0  0
  7  2  2  0  0  0  0
  8  7  1  0  0  0  0
  9 11  2  0  0  0  0
 10  9  1  0  0  0  0
 11 12  1  0  0  0  0
 11 13  1  0  0  0  0
 13 14  1  0  0  0  0
 15 13  2  0  0  0  0
 15 16  1  0  0  0  0
 16 18  1  0  0  0  0
 16 17  1  0  0  0  0
 19 21  1  0  0  0  0
 19  4  2  0  0  0  0
 20 19  1  0  0  0  0
 21 23  2  0  0  0  0
 22 21  1  0  0  0  0
 23 24  1  0  0  0  0
 23 25  1  0  0  0  0
 25 26  1  0  0  0  0
 27 25  2  0  0  0  0
 27 28  1  0  0  0  0
 28 30  1  0  0  0  0
 29 28  1  0  0  0  0
 31 33  1  0  0  0  0
 32 31  1  0  0  0  0
 34 31  1  0  0  0  0
 34 35  1  0  0  0  0
 34 36  1  0  0  0  0
 37  5  1  0  0  0  0
 37 39  1  0  0  0  0
 38 37  1  0  0  0  0
 40 41  2  0  0  0  0
 40 37  1  0  0  0  0
 42 40  1  0  0  0  0
 42  1  1  0  0  0  0
 43 46  1  0  0  0  0
 43 44  1  0  0  0  0
 45 43  1  0  0  0  0
 46 47  2  0  0  0  0
 47 48  1  0  0  0  0
 49 47  1  0  0  0  0
 49 50  1  0  0  0  0
 51 49  2  0  0  0  0
 52 51  1  0  0  0  0
 53  6  2  0  0  0  0
 53 51  1  0  0  0  0
 54 53  1  0  0  0  0
 55  1  1  0  0  0  0
 56 55  1  0  0  0  0
M  CHG  1   1   2
M  END
$$$$
