
 OpenBabel02052520053D

 55 61  0  0  0  0  0  0  0  0999 V2000
   -0.0337    0.0875   -0.9074 Fe  0  2  0  0  0  0  0  0  0  0  0  0
    1.0818    1.8043   -0.1656 N   0  0  0  0  0  0  0  0  0  0  0  0
   -0.0894   -0.1987    1.5162 N   0  0  2  0  0  0  0  0  0  0  0  0
    1.8207   -0.8541   -0.4306 N   0  0  0  0  0  0  0  0  0  0  0  0
   -2.4174   -2.0701    0.4986 N   0  0  1  0  0  0  0  0  0  0  0  0
   -2.0413    0.9033   -0.5704 N   0  0  0  0  0  0  0  0  0  0  0  0
    1.8030    2.5525   -1.0250 C   0  0  0  0  0  0  0  0  0  0  0  0
    1.5592    2.4241   -2.0730 H   0  0  0  0  0  0  0  0  0  0  0  0
    2.8032    3.4150   -0.5883 C   0  0  0  0  0  0  0  0  0  0  0  0
    3.3547    4.0105   -1.3076 H   0  0  0  0  0  0  0  0  0  0  0  0
    3.0830    3.4784    0.7776 C   0  0  0  0  0  0  0  0  0  0  0  0
    3.8684    4.1282    1.1514 H   0  0  0  0  0  0  0  0  0  0  0  0
    2.3405    2.6916    1.6626 C   0  0  0  0  0  0  0  0  0  0  0  0
    2.5316    2.7230    2.7306 H   0  0  0  0  0  0  0  0  0  0  0  0
    1.3381    1.8708    1.1548 C   0  0  0  0  0  0  0  0  0  0  0  0
    0.3949    1.1133    2.0548 C   0  0  0  0  0  0  0  0  0  0  0  0
    0.8375    0.9742    3.0495 H   0  0  0  0  0  0  0  0  0  0  0  0
   -0.4874    1.7489    2.1881 H   0  0  0  0  0  0  0  0  0  0  0  0
    2.7670   -0.9383   -1.3827 C   0  0  0  0  0  0  0  0  0  0  0  0
    2.4815   -0.5765   -2.3651 H   0  0  0  0  0  0  0  0  0  0  0  0
    4.0290   -1.4543   -1.1093 C   0  0  0  0  0  0  0  0  0  0  0  0
    4.7702   -1.5196   -1.8982 H   0  0  0  0  0  0  0  0  0  0  0  0
    4.3097   -1.8756    0.1918 C   0  0  0  0  0  0  0  0  0  0  0  0
    5.2873   -2.2759    0.4419 H   0  0  0  0  0  0  0  0  0  0  0  0
    3.3192   -1.7812    1.1730 C   0  0  0  0  0  0  0  0  0  0  0  0
    3.5092   -2.1108    2.1896 H   0  0  0  0  0  0  0  0  0  0  0  0
    2.0719   -1.2729    0.8234 C   0  0  0  0  0  0  0  0  0  0  0  0
    0.9013   -1.2798    1.7831 C   0  0  0  0  0  0  0  0  0  0  0  0
    0.3972   -2.2424    1.6535 H   0  0  0  0  0  0  0  0  0  0  0  0
    1.2513   -1.2423    2.8235 H   0  0  0  0  0  0  0  0  0  0  0  0
   -1.3866   -0.4552    2.2106 C   0  0  0  0  0  0  0  0  0  0  0  0
   -2.0297    0.3971    1.9959 H   0  0  0  0  0  0  0  0  0  0  0  0
   -1.2273   -0.4696    3.2996 H   0  0  0  0  0  0  0  0  0  0  0  0
   -2.1572   -1.7534    1.9012 C   0  0  0  0  0  0  0  0  0  0  0  0
   -1.6633   -2.6208    2.3418 H   0  0  0  0  0  0  0  0  0  0  0  0
   -3.1266   -1.6515    2.4090 H   0  0  0  0  0  0  0  0  0  0  0  0
   -1.8832   -3.2365   -0.0592 C   0  0  0  0  0  0  0  0  0  0  0  0
   -2.5129   -3.6586   -0.8483 H   0  0  0  0  0  0  0  0  0  0  0  0
   -1.6125   -3.9854    0.6820 H   0  0  0  0  0  0  0  0  0  0  0  0
   -0.4864   -2.8167   -0.8712 C   0  0  0  0  0  0  0  0  0  0  0  0
    0.4268   -3.5936   -0.7659 O   0  0  0  0  0  0  0  0  0  0  0  0
   -0.6371   -1.6965   -1.4552 O   0  0  0  0  0  0  0  0  0  0  0  0
   -3.2907   -1.2467   -0.3502 C   0  0  0  0  0  0  0  0  0  0  0  0
   -4.3223   -1.5452   -0.1187 H   0  0  0  0  0  0  0  0  0  0  0  0
   -3.0900   -1.5366   -1.3846 H   0  0  0  0  0  0  0  0  0  0  0  0
   -3.1991    0.2665   -0.2561 C   0  0  0  0  0  0  0  0  0  0  0  0
   -4.3617    0.9821    0.0277 C   0  0  0  0  0  0  0  0  0  0  0  0
   -5.2741    0.4501    0.2774 H   0  0  0  0  0  0  0  0  0  0  0  0
   -4.3581    2.3780   -0.0370 C   0  0  0  0  0  0  0  0  0  0  0  0
   -5.2624    2.9402    0.1744 H   0  0  0  0  0  0  0  0  0  0  0  0
   -3.1782    3.0238   -0.3928 C   0  0  0  0  0  0  0  0  0  0  0  0
   -3.1225    4.1035   -0.4795 H   0  0  0  0  0  0  0  0  0  0  0  0
   -2.0485    2.2500   -0.6453 C   0  0  0  0  0  0  0  0  0  0  0  0
   -1.1109    2.7163   -0.9213 H   0  0  0  0  0  0  0  0  0  0  0  0
    0.2452    0.7006   -2.5385 F   0  0  0  0  0  0  0  0  0  0  0  0
  2 15  1  0  0  0  0
  2  1  9  0  0  0  0
  3 28  1  1  0  0  0
  3 16  1  0  0  0  0
  3 31  1  0  0  0  0
  3  1  9  0  0  0  0
  4 27  1  0  0  0  0
  4  1  9  0  0  0  0
  5 43  1  1  0  0  0
  5 34  1  0  0  0  0
  6 46  1  0  0  0  0
  6  1  9  0  0  0  0
  7  9  1  0  0  0  0
  7  2  2  0  0  0  0
  8  7  1  0  0  0  0
  9 11  2  0  0  0  0
 10  9  1  0  0  0  0
 11 12  1  0  0  0  0
 11 13  1  0  0  0  0
 13 14  1  0  0  0  0
 15 13  2  0  0  0  0
 15 16  1  0  0  0  0
 16 18  1  0  0  0  0
 16 17  1  0  0  0  0
 19 21  1  0  0  0  0
 19  4  2  0  0  0  0
 20 19  1  0  0  0  0
 21 23  2  0  0  0  0
 22 21  1  0  0  0  0
 23 24  1  0  0  0  0
 23 25  1  0  0  0  0
 25 26  1  0  0  0  0
 27 25  2  0  0  0  0
 27 28  1  0  0  0  0
 28 30  1  0  0  0  0
 29 28  1  0  0  0  0
 31 33  1  0  0  0  0
 32 31  1  0  0  0  0
 34 31  1  0  0  0  0
 34 35  1  0  0  0  0
 34 36  1  0  0  0  0
 37  5  1  0  0  0  0
 37 39  1  0  0  0  0
 38 37  1  0  0  0  0
 40 41  2  0  0  0  0
 40 37  1  0  0  0  0
 42  1  1  0  0  0  0
 42 40  1  0  0  0  0
 43 46  1  0  0  0  0
 43 44  1  0  0  0  0
 45 43  1  0  0  0  0
 46 47  2  0  0  0  0
 47 48  1  0  0  0  0
 49 47  1  0  0  0  0
 49 50  1  0  0  0  0
 51 49  2  0  0  0  0
 52 51  1  0  0  0  0
 53  6  2  0  0  0  0
 53 51  1  0  0  0  0
 54 53  1  0  0  0  0
 55  1  1  0  0  0  0
M  CHG  1   1   2
M  END
$$$$
