
 OpenBabel02052520053D

 55 61  0  0  0  0  0  0  0  0999 V2000
    0.0387    0.0969    0.8155 Fe  0  2  0  0  0  0  0  0  0  0  0  0
   -1.1532    1.7831    0.0169 N   0  0  0  0  0  0  0  0  0  0  0  0
    0.1175   -0.2738   -1.5761 N   0  0  2  0  0  0  0  0  0  0  0  0
   -1.8153   -0.8755    0.3805 N   0  0  0  0  0  0  0  0  0  0  0  0
    2.4743   -2.0943   -0.5115 N   0  0  1  0  0  0  0  0  0  0  0  0
    2.0366    0.9274    0.4056 N   0  0  0  0  0  0  0  0  0  0  0  0
   -1.9488    2.5428    0.7970 C   0  0  0  0  0  0  0  0  0  0  0  0
   -1.7402    2.5142    1.8591 H   0  0  0  0  0  0  0  0  0  0  0  0
   -2.9835    3.3154    0.2777 C   0  0  0  0  0  0  0  0  0  0  0  0
   -3.5894    3.9192    0.9445 H   0  0  0  0  0  0  0  0  0  0  0  0
   -3.2220    3.2818   -1.0954 C   0  0  0  0  0  0  0  0  0  0  0  0
   -4.0305    3.8592   -1.5331 H   0  0  0  0  0  0  0  0  0  0  0  0
   -2.4000    2.4922   -1.9040 C   0  0  0  0  0  0  0  0  0  0  0  0
   -2.5499    2.4513   -2.9781 H   0  0  0  0  0  0  0  0  0  0  0  0
   -1.3702    1.7651   -1.3157 C   0  0  0  0  0  0  0  0  0  0  0  0
   -0.3553    1.0266   -2.1473 C   0  0  0  0  0  0  0  0  0  0  0  0
   -0.7297    0.8763   -3.1683 H   0  0  0  0  0  0  0  0  0  0  0  0
    0.5231    1.6769   -2.2222 H   0  0  0  0  0  0  0  0  0  0  0  0
   -2.7713   -0.9565    1.3240 C   0  0  0  0  0  0  0  0  0  0  0  0
   -2.5067   -0.5699    2.3022 H   0  0  0  0  0  0  0  0  0  0  0  0
   -4.0203   -1.5042    1.0536 C   0  0  0  0  0  0  0  0  0  0  0  0
   -4.7660   -1.5636    1.8388 H   0  0  0  0  0  0  0  0  0  0  0  0
   -4.2818   -1.9649   -0.2377 C   0  0  0  0  0  0  0  0  0  0  0  0
   -5.2489   -2.3909   -0.4860 H   0  0  0  0  0  0  0  0  0  0  0  0
   -3.2829   -1.8774   -1.2103 C   0  0  0  0  0  0  0  0  0  0  0  0
   -3.4553   -2.2390   -2.2191 H   0  0  0  0  0  0  0  0  0  0  0  0
   -2.0486   -1.3357   -0.8634 C   0  0  0  0  0  0  0  0  0  0  0  0
   -0.8761   -1.3567   -1.8203 C   0  0  0  0  0  0  0  0  0  0  0  0
   -0.3729   -2.3175   -1.6764 H   0  0  0  0  0  0  0  0  0  0  0  0
   -1.2261   -1.3350   -2.8614 H   0  0  0  0  0  0  0  0  0  0  0  0
    1.4105   -0.5518   -2.2704 C   0  0  0  0  0  0  0  0  0  0  0  0
    2.0490    0.3136   -2.1030 H   0  0  0  0  0  0  0  0  0  0  0  0
    1.2365   -0.6128   -3.3557 H   0  0  0  0  0  0  0  0  0  0  0  0
    2.1988   -1.8294   -1.9210 C   0  0  0  0  0  0  0  0  0  0  0  0
    1.7115   -2.7177   -2.3262 H   0  0  0  0  0  0  0  0  0  0  0  0
    3.1620   -1.7335   -2.4416 H   0  0  0  0  0  0  0  0  0  0  0  0
    1.9530   -3.2479    0.0857 C   0  0  0  0  0  0  0  0  0  0  0  0
    2.5706   -3.6161    0.9101 H   0  0  0  0  0  0  0  0  0  0  0  0
    1.7217   -4.0364   -0.6275 H   0  0  0  0  0  0  0  0  0  0  0  0
    0.5246   -2.8186    0.8274 C   0  0  0  0  0  0  0  0  0  0  0  0
   -0.3819   -3.6031    0.7231 O   0  0  0  0  0  0  0  0  0  0  0  0
    0.6508   -1.6746    1.3719 O   0  0  0  0  0  0  0  0  0  0  0  0
    3.3124   -1.2143    0.3170 C   0  0  0  0  0  0  0  0  0  0  0  0
    4.3537   -1.5114    0.1314 H   0  0  0  0  0  0  0  0  0  0  0  0
    3.0853   -1.4515    1.3594 H   0  0  0  0  0  0  0  0  0  0  0  0
    3.2039    0.2891    0.1346 C   0  0  0  0  0  0  0  0  0  0  0  0
    4.3567    1.0031   -0.1920 C   0  0  0  0  0  0  0  0  0  0  0  0
    5.2785    0.4703   -0.4021 H   0  0  0  0  0  0  0  0  0  0  0  0
    4.3297    2.3997   -0.2229 C   0  0  0  0  0  0  0  0  0  0  0  0
    5.2256    2.9613   -0.4687 H   0  0  0  0  0  0  0  0  0  0  0  0
    3.1375    3.0486    0.0839 C   0  0  0  0  0  0  0  0  0  0  0  0
    3.0636    4.1307    0.0963 H   0  0  0  0  0  0  0  0  0  0  0  0
    2.0209    2.2754    0.3903 C   0  0  0  0  0  0  0  0  0  0  0  0
    1.0759    2.7410    0.6424 H   0  0  0  0  0  0  0  0  0  0  0  0
   -0.0553    0.8778    2.8983 Cl  0  0  0  0  0  0  0  0  0  0  0  0
  1 42  1  0  0  0  0
  1 55  1  0  0  0  0
  2  7  1  0  0  0  0
  2  1  9  0  0  0  0
  3 31  1  6  0  0  0
  3  1  9  0  0  0  0
  4 19  1  0  0  0  0
  4  1  9  0  0  0  0
  5 34  1  6  0  0  0
  5 37  1  0  0  0  0
  5 43  1  0  0  0  0
  6  1  9  0  0  0  0
  7  8  1  0  0  0  0
  9  7  2  0  0  0  0
  9 10  1  0  0  0  0
 11  9  1  0  0  0  0
 12 11  1  0  0  0  0
 13 15  1  0  0  0  0
 13 11  2  0  0  0  0
 14 13  1  0  0  0  0
 15  2  2  0  0  0  0
 16  3  1  0  0  0  0
 16 15  1  0  0  0  0
 17 16  1  0  0  0  0
 18 16  1  0  0  0  0
 19 20  1  0  0  0  0
 21 19  2  0  0  0  0
 21 22  1  0  0  0  0
 23 21  1  0  0  0  0
 24 23  1  0  0  0  0
 25 27  1  0  0  0  0
 25 23  2  0  0  0  0
 26 25  1  0  0  0  0
 27  4  2  0  0  0  0
 28 29  1  0  0  0  0
 28  3  1  0  0  0  0
 28 27  1  0  0  0  0
 30 28  1  0  0  0  0
 31 32  1  0  0  0  0
 31 34  1  0  0  0  0
 33 31  1  0  0  0  0
 35 34  1  0  0  0  0
 36 34  1  0  0  0  0
 37 40  1  0  0  0  0
 37 38  1  0  0  0  0
 39 37  1  0  0  0  0
 40 42  1  0  0  0  0
 41 40  2  0  0  0  0
 43 45  1  0  0  0  0
 44 43  1  0  0  0  0
 46 43  1  0  0  0  0
 46  6  2  0  0  0  0
 47 46  1  0  0  0  0
 48 47  1  0  0  0  0
 49 47  2  0  0  0  0
 49 51  1  0  0  0  0
 50 49  1  0  0  0  0
 51 52  1  0  0  0  0
 51 53  2  0  0  0  0
 53  6  1  0  0  0  0
 53 54  1  0  0  0  0
M  CHG  1   1   2
M  END
$$$$
