
 OpenBabel02052520053D

 95 99  0  0  0  0  0  0  0  0999 V2000
    0.0156    0.1168    0.0255 Fe  0  0  0  0  0  0  0  0  0  0  0  0
    2.3827   -1.1609    1.4627 C   0  0  0  0  0  0  0  0  0  0  0  0
    1.2318   -1.2880    2.3895 C   0  0  0  0  0  0  0  0  0  0  0  0
    1.3108   -1.7356    3.7134 C   0  0  0  0  0  0  0  0  0  0  0  0
    2.2684   -1.9775    4.1597 H   0  0  0  0  0  0  0  0  0  0  0  0
    0.1319   -1.8707    4.4454 C   0  0  0  0  0  0  0  0  0  0  0  0
    0.1651   -2.2115    5.4755 H   0  0  0  0  0  0  0  0  0  0  0  0
   -1.0940   -1.5817    3.8415 C   0  0  0  0  0  0  0  0  0  0  0  0
   -2.0206   -1.7063    4.3897 H   0  0  0  0  0  0  0  0  0  0  0  0
   -1.0992   -1.1364    2.5167 C   0  0  0  0  0  0  0  0  0  0  0  0
   -2.3179   -0.8716    1.7113 C   0  0  0  0  0  0  0  0  0  0  0  0
    3.7441   -1.6014    1.9263 C   0  0  0  0  0  0  0  0  0  0  0  0
    4.4599   -1.5784    1.1043 H   0  0  0  0  0  0  0  0  0  0  0  0
    3.6971   -2.6194    2.3296 H   0  0  0  0  0  0  0  0  0  0  0  0
    4.1088   -0.9421    2.7227 H   0  0  0  0  0  0  0  0  0  0  0  0
   -3.6646   -1.1717    2.3134 C   0  0  0  0  0  0  0  0  0  0  0  0
   -3.7822   -0.6397    3.2642 H   0  0  0  0  0  0  0  0  0  0  0  0
   -3.7608   -2.2452    2.5175 H   0  0  0  0  0  0  0  0  0  0  0  0
   -4.4675   -0.8720    1.6403 H   0  0  0  0  0  0  0  0  0  0  0  0
    3.0846   -0.5347   -0.7293 C   0  0  0  0  0  0  0  0  0  0  0  0
    4.0054    0.5319   -0.6803 C   0  0  0  0  0  0  0  0  0  0  0  0
    4.9030    0.6568   -1.7498 C   0  0  0  0  0  0  0  0  0  0  0  0
    5.6206    1.4724   -1.7414 H   0  0  0  0  0  0  0  0  0  0  0  0
    4.8872   -0.2316   -2.8194 C   0  0  0  0  0  0  0  0  0  0  0  0
    5.5950   -0.1135   -3.6356 H   0  0  0  0  0  0  0  0  0  0  0  0
    3.9551   -1.2685   -2.8494 C   0  0  0  0  0  0  0  0  0  0  0  0
    3.9435   -1.9520   -3.6921 H   0  0  0  0  0  0  0  0  0  0  0  0
    3.0295   -1.4336   -1.8175 C   0  0  0  0  0  0  0  0  0  0  0  0
    4.0332    1.5568    0.4484 C   0  0  0  0  0  0  0  0  0  0  0  0
    3.2451    1.3133    1.1659 H   0  0  0  0  0  0  0  0  0  0  0  0
    5.3844    1.5546    1.1893 C   0  0  0  0  0  0  0  0  0  0  0  0
    5.6411    0.5622    1.5761 H   0  0  0  0  0  0  0  0  0  0  0  0
    5.3541    2.2534    2.0336 H   0  0  0  0  0  0  0  0  0  0  0  0
    6.2001    1.8697    0.5279 H   0  0  0  0  0  0  0  0  0  0  0  0
    3.7106    2.9669   -0.0782 C   0  0  0  0  0  0  0  0  0  0  0  0
    4.4843    3.3216   -0.7701 H   0  0  0  0  0  0  0  0  0  0  0  0
    3.6463    3.6761    0.7547 H   0  0  0  0  0  0  0  0  0  0  0  0
    2.7510    2.9805   -0.5983 H   0  0  0  0  0  0  0  0  0  0  0  0
    2.0345   -2.5864   -1.8146 C   0  0  0  0  0  0  0  0  0  0  0  0
    1.1777   -2.2734   -1.2083 H   0  0  0  0  0  0  0  0  0  0  0  0
    1.4907   -2.9303   -3.2078 C   0  0  0  0  0  0  0  0  0  0  0  0
    1.0692   -2.0406   -3.6834 H   0  0  0  0  0  0  0  0  0  0  0  0
    0.6963   -3.6799   -3.1195 H   0  0  0  0  0  0  0  0  0  0  0  0
    2.2652   -3.3510   -3.8604 H   0  0  0  0  0  0  0  0  0  0  0  0
    2.6589   -3.8257   -1.1434 C   0  0  0  0  0  0  0  0  0  0  0  0
    3.5381   -4.1658   -1.7036 H   0  0  0  0  0  0  0  0  0  0  0  0
    1.9385   -4.6514   -1.1054 H   0  0  0  0  0  0  0  0  0  0  0  0
    2.9802   -3.6100   -0.1177 H   0  0  0  0  0  0  0  0  0  0  0  0
   -3.2006   -0.3428   -0.4233 C   0  0  0  0  0  0  0  0  0  0  0  0
   -3.6884   -1.5262   -1.0209 C   0  0  0  0  0  0  0  0  0  0  0  0
   -4.7299   -1.4031   -1.9475 C   0  0  0  0  0  0  0  0  0  0  0  0
   -5.1194   -2.2924   -2.4328 H   0  0  0  0  0  0  0  0  0  0  0  0
   -5.2663   -0.1595   -2.2679 C   0  0  0  0  0  0  0  0  0  0  0  0
   -6.0792   -0.0869   -2.9856 H   0  0  0  0  0  0  0  0  0  0  0  0
   -4.7461    0.9938   -1.6857 C   0  0  0  0  0  0  0  0  0  0  0  0
   -5.1536    1.9596   -1.9630 H   0  0  0  0  0  0  0  0  0  0  0  0
   -3.6941    0.9326   -0.7657 C   0  0  0  0  0  0  0  0  0  0  0  0
   -3.0344   -2.8817   -0.7713 C   0  0  0  0  0  0  0  0  0  0  0  0
   -2.5344   -2.8574    0.2014 H   0  0  0  0  0  0  0  0  0  0  0  0
   -1.9407   -3.1215   -1.8312 C   0  0  0  0  0  0  0  0  0  0  0  0
   -2.3847   -3.1749   -2.8322 H   0  0  0  0  0  0  0  0  0  0  0  0
   -1.4124   -4.0629   -1.6378 H   0  0  0  0  0  0  0  0  0  0  0  0
   -1.2153   -2.3027   -1.8364 H   0  0  0  0  0  0  0  0  0  0  0  0
   -4.0320   -4.0499   -0.7222 C   0  0  0  0  0  0  0  0  0  0  0  0
   -4.4885   -4.2409   -1.6997 H   0  0  0  0  0  0  0  0  0  0  0  0
   -4.8397   -3.8598   -0.0055 H   0  0  0  0  0  0  0  0  0  0  0  0
   -3.5151   -4.9691   -0.4228 H   0  0  0  0  0  0  0  0  0  0  0  0
   -3.0924    2.1866   -0.1489 C   0  0  0  0  0  0  0  0  0  0  0  0
   -2.0166    2.0105   -0.0593 H   0  0  0  0  0  0  0  0  0  0  0  0
   -3.6220    2.4456    1.2743 C   0  0  0  0  0  0  0  0  0  0  0  0
   -4.7034    2.6314    1.2595 H   0  0  0  0  0  0  0  0  0  0  0  0
   -3.1217    3.3223    1.6996 H   0  0  0  0  0  0  0  0  0  0  0  0
   -3.4293    1.6008    1.9421 H   0  0  0  0  0  0  0  0  0  0  0  0
   -3.2661    3.4427   -1.0122 C   0  0  0  0  0  0  0  0  0  0  0  0
   -4.3141    3.7661   -1.0567 H   0  0  0  0  0  0  0  0  0  0  0  0
   -2.9105    3.2735   -2.0335 H   0  0  0  0  0  0  0  0  0  0  0  0
   -2.6823    4.2619   -0.5846 H   0  0  0  0  0  0  0  0  0  0  0  0
   -2.1165   -0.4455    0.5094 N   0  0  0  0  0  0  0  0  0  0  0  0
    0.0482   -0.9811    1.8382 N   0  0  0  0  0  0  0  0  0  0  0  0
    2.0988   -0.7014    0.2918 N   0  0  0  0  0  0  0  0  0  0  0  0
   -0.1411   -3.7845    0.6965 O   0  0  0  0  0  0  0  0  0  0  0  0
    0.6955   -4.1593    1.4931 O   0  0  0  0  0  0  0  0  0  0  0  0
    0.3657    1.9745    1.4845 S   0  0  0  0  0  0  0  0  0  0  0  0
    0.0644    3.4987    0.6124 C   0  0  0  0  0  0  0  0  0  0  0  0
   -0.3268    4.6358    1.3434 C   0  0  0  0  0  0  0  0  0  0  0  0
   -0.4574    4.5546    2.4191 H   0  0  0  0  0  0  0  0  0  0  0  0
   -0.8395    6.7234    1.2884 H   0  0  0  0  0  0  0  0  0  0  0  0
   -0.5404    5.8571    0.7026 C   0  0  0  0  0  0  0  0  0  0  0  0
   -0.3748    5.9704   -0.6805 C   0  0  0  0  0  0  0  0  0  0  0  0
   -0.5428    6.9217   -1.1783 H   0  0  0  0  0  0  0  0  0  0  0  0
    0.1208    4.9088   -2.4941 H   0  0  0  0  0  0  0  0  0  0  0  0
    0.0005    4.8430   -1.4155 C   0  0  0  0  0  0  0  0  0  0  0  0
    0.2166    3.6199   -0.7809 C   0  0  0  0  0  0  0  0  0  0  0  0
    0.4832    2.7461   -1.3660 H   0  0  0  0  0  0  0  0  0  0  0  0
   -0.1022    0.2523   -2.2482 Cl  0  0  0  0  0  0  0  0  0  0  0  0
  1 80  1  0  0  0  0
  1 83  1  0  0  0  0
  1 79  1  0  0  0  0
  2 12  1  0  0  0  0
  2  3  2  0  0  0  0
  3  4  1  0  0  0  0
  4  5  1  0  0  0  0
  4  6  2  0  0  0  0
  6  7  1  0  0  0  0
  8  9  1  0  0  0  0
  8  6  1  0  0  0  0
 10  8  2  0  0  0  0
 11 16  1  0  0  0  0
 11 10  1  0  0  0  0
 12 14  1  0  0  0  0
 12 15  1  0  0  0  0
 13 12  1  0  0  0  0
 16 18  1  0  0  0  0
 16 17  1  0  0  0  0
 19 16  1  0  0  0  0
 20 21  1  0  0  0  0
 20 80  1  0  0  0  0
 21 29  1  0  0  0  0
 22 23  1  0  0  0  0
 22 21  2  0  0  0  0
 24 22  1  0  0  0  0
 25 24  1  0  0  0  0
 26 24  2  0  0  0  0
 26 28  1  0  0  0  0
 27 26  1  0  0  0  0
 28 39  1  0  0  0  0
 28 20  2  0  0  0  0
 29 30  1  0  0  0  0
 29 31  1  0  0  0  0
 31 32  1  0  0  0  0
 31 33  1  0  0  0  0
 34 31  1  0  0  0  0
 35 29  1  0  0  0  0
 35 37  1  0  0  0  0
 36 35  1  0  0  0  0
 38 35  1  0  0  0  0
 39 40  1  0  0  0  0
 39 45  1  0  0  0  0
 41 43  1  0  0  0  0
 41 39  1  0  0  0  0
 42 41  1  0  0  0  0
 44 41  1  0  0  0  0
 45 47  1  0  0  0  0
 45 48  1  0  0  0  0
 46 45  1  0  0  0  0
 49 78  1  0  0  0  0
 50 58  1  0  0  0  0
 50 49  1  0  0  0  0
 51 50  2  0  0  0  0
 52 51  1  0  0  0  0
 53 51  1  0  0  0  0
 53 55  2  0  0  0  0
 54 53  1  0  0  0  0
 55 57  1  0  0  0  0
 56 55  1  0  0  0  0
 57 49  2  0  0  0  0
 57 68  1  0  0  0  0
 58 64  1  0  0  0  0
 58 59  1  0  0  0  0
 60 62  1  0  0  0  0
 60 58  1  0  0  0  0
 61 60  1  0  0  0  0
 63 60  1  0  0  0  0
 64 67  1  0  0  0  0
 64 66  1  0  0  0  0
 65 64  1  0  0  0  0
 68 69  1  0  0  0  0
 68 70  1  0  0  0  0
 70 72  1  0  0  0  0
 70 73  1  0  0  0  0
 71 70  1  0  0  0  0
 74 77  1  0  0  0  0
 74 68  1  0  0  0  0
 75 74  1  0  0  0  0
 76 74  1  0  0  0  0
 78 11  2  0  0  0  0
 78  1  9  0  0  0  0
 79  3  1  0  0  0  0
 79 10  1  0  0  0  0
 80  2  1  0  0  0  0
 81 82  2  0  0  0  0
 84 85  2  0  0  0  0
 84 83  1  0  0  0  0
 85 86  1  0  0  0  0
 88 87  1  0  0  0  0
 88 85  1  0  0  0  0
 89 88  2  0  0  0  0
 90 89  1  0  0  0  0
 91 92  1  0  0  0  0
 92 93  2  0  0  0  0
 92 89  1  0  0  0  0
 93 84  1  0  0  0  0
 94 93  1  0  0  0  0
 95  1  1  0  0  0  0
M  END
$$$$
