
 OpenBabel02072512503D

 87 91  0  0  0  0  0  0  0  0999 V2000
   -0.0068   -0.4756    0.0206 Fe  0  0  0  0  0  0  0  0  0  0  0  0
    2.3796    0.3060    1.7634 C   0  0  0  0  0  0  0  0  0  0  0  0
    1.1665    0.3858    2.6289 C   0  0  0  0  0  0  0  0  0  0  0  0
    1.2018    0.5502    4.0179 C   0  0  0  0  0  0  0  0  0  0  0  0
    2.1471    0.6020    4.5453 H   0  0  0  0  0  0  0  0  0  0  0  0
   -0.0043    0.6398    4.7117 C   0  0  0  0  0  0  0  0  0  0  0  0
   -0.0060    0.7608    5.7906 H   0  0  0  0  0  0  0  0  0  0  0  0
   -1.2078    0.5741    4.0115 C   0  0  0  0  0  0  0  0  0  0  0  0
   -2.1548    0.6446    4.5335 H   0  0  0  0  0  0  0  0  0  0  0  0
   -1.1684    0.4085    2.6224 C   0  0  0  0  0  0  0  0  0  0  0  0
   -2.3779    0.3483    1.7511 C   0  0  0  0  0  0  0  0  0  0  0  0
    3.7348    0.5040    2.3873 C   0  0  0  0  0  0  0  0  0  0  0  0
    4.5165    0.4705    1.6280 H   0  0  0  0  0  0  0  0  0  0  0  0
    3.9217   -0.2917    3.1194 H   0  0  0  0  0  0  0  0  0  0  0  0
    3.7913    1.4617    2.9161 H   0  0  0  0  0  0  0  0  0  0  0  0
   -3.7352    0.5502    2.3695 C   0  0  0  0  0  0  0  0  0  0  0  0
   -3.7852    1.4992    2.9144 H   0  0  0  0  0  0  0  0  0  0  0  0
   -3.9362   -0.2562    3.0859 H   0  0  0  0  0  0  0  0  0  0  0  0
   -4.5117    0.5381    1.6042 H   0  0  0  0  0  0  0  0  0  0  0  0
    3.1762    0.1422   -0.4761 C   0  0  0  0  0  0  0  0  0  0  0  0
    3.5495    1.4063   -0.9857 C   0  0  0  0  0  0  0  0  0  0  0  0
    4.5324    1.4328   -1.9821 C   0  0  0  0  0  0  0  0  0  0  0  0
    4.8464    2.3906   -2.3868 H   0  0  0  0  0  0  0  0  0  0  0  0
    5.1077    0.2611   -2.4673 C   0  0  0  0  0  0  0  0  0  0  0  0
    5.8707    0.3087   -3.2396 H   0  0  0  0  0  0  0  0  0  0  0  0
    4.6915   -0.9716   -1.9712 C   0  0  0  0  0  0  0  0  0  0  0  0
    5.1304   -1.8853   -2.3615 H   0  0  0  0  0  0  0  0  0  0  0  0
    3.7102   -1.0596   -0.9781 C   0  0  0  0  0  0  0  0  0  0  0  0
    2.9281    2.7129   -0.4984 C   0  0  0  0  0  0  0  0  0  0  0  0
    2.0838    2.4691    0.1521 H   0  0  0  0  0  0  0  0  0  0  0  0
    3.9457    3.5439    0.3084 C   0  0  0  0  0  0  0  0  0  0  0  0
    4.3544    2.9841    1.1566 H   0  0  0  0  0  0  0  0  0  0  0  0
    3.4772    4.4571    0.6950 H   0  0  0  0  0  0  0  0  0  0  0  0
    4.7905    3.8435   -0.3233 H   0  0  0  0  0  0  0  0  0  0  0  0
    2.3521    3.5467   -1.6582 C   0  0  0  0  0  0  0  0  0  0  0  0
    3.1393    3.8833   -2.3433 H   0  0  0  0  0  0  0  0  0  0  0  0
    1.8570    4.4412   -1.2605 H   0  0  0  0  0  0  0  0  0  0  0  0
    1.6151    2.9709   -2.2223 H   0  0  0  0  0  0  0  0  0  0  0  0
    3.2593   -2.4154   -0.4530 C   0  0  0  0  0  0  0  0  0  0  0  0
    2.4333   -2.2483    0.2439 H   0  0  0  0  0  0  0  0  0  0  0  0
    2.7199   -3.3052   -1.5869 C   0  0  0  0  0  0  0  0  0  0  0  0
    1.8595   -2.8239   -2.0603 H   0  0  0  0  0  0  0  0  0  0  0  0
    2.3858   -4.2662   -1.1835 H   0  0  0  0  0  0  0  0  0  0  0  0
    3.4884   -3.5003   -2.3449 H   0  0  0  0  0  0  0  0  0  0  0  0
    4.3906   -3.1100    0.3280 C   0  0  0  0  0  0  0  0  0  0  0  0
    5.2486   -3.3227   -0.3213 H   0  0  0  0  0  0  0  0  0  0  0  0
    4.0383   -4.0614    0.7432 H   0  0  0  0  0  0  0  0  0  0  0  0
    4.7488   -2.4857    1.1566 H   0  0  0  0  0  0  0  0  0  0  0  0
   -3.1682    0.1893   -0.4910 C   0  0  0  0  0  0  0  0  0  0  0  0
   -3.7427   -1.0102   -0.9512 C   0  0  0  0  0  0  0  0  0  0  0  0
   -4.7196   -0.9216   -1.9488 C   0  0  0  0  0  0  0  0  0  0  0  0
   -5.1883   -1.8325   -2.3103 H   0  0  0  0  0  0  0  0  0  0  0  0
   -5.0939    0.3075   -2.4856 C   0  0  0  0  0  0  0  0  0  0  0  0
   -5.8546    0.3552   -3.2602 H   0  0  0  0  0  0  0  0  0  0  0  0
   -4.4811    1.4752   -2.0375 C   0  0  0  0  0  0  0  0  0  0  0  0
   -4.7653    2.4295   -2.4714 H   0  0  0  0  0  0  0  0  0  0  0  0
   -3.4990    1.4474   -1.0405 C   0  0  0  0  0  0  0  0  0  0  0  0
   -3.3365   -2.3620   -0.3807 C   0  0  0  0  0  0  0  0  0  0  0  0
   -2.5061   -2.2001    0.3121 H   0  0  0  0  0  0  0  0  0  0  0  0
   -2.8228   -3.3049   -1.4833 C   0  0  0  0  0  0  0  0  0  0  0  0
   -3.5998   -3.5119   -2.2295 H   0  0  0  0  0  0  0  0  0  0  0  0
   -2.5071   -4.2577   -1.0461 H   0  0  0  0  0  0  0  0  0  0  0  0
   -1.9558   -2.8594   -1.9788 H   0  0  0  0  0  0  0  0  0  0  0  0
   -4.4919   -2.9948    0.4174 C   0  0  0  0  0  0  0  0  0  0  0  0
   -5.3548   -3.1995   -0.2279 H   0  0  0  0  0  0  0  0  0  0  0  0
   -4.8318   -2.3342    1.2252 H   0  0  0  0  0  0  0  0  0  0  0  0
   -4.1724   -3.9441    0.8631 H   0  0  0  0  0  0  0  0  0  0  0  0
   -2.8393    2.7444   -0.5792 C   0  0  0  0  0  0  0  0  0  0  0  0
   -1.9848    2.4857    0.0520 H   0  0  0  0  0  0  0  0  0  0  0  0
   -3.8211    3.5964    0.2496 C   0  0  0  0  0  0  0  0  0  0  0  0
   -4.6799    3.9020   -0.3602 H   0  0  0  0  0  0  0  0  0  0  0  0
   -3.3293    4.5058    0.6159 H   0  0  0  0  0  0  0  0  0  0  0  0
   -4.2120    3.0481    1.1137 H   0  0  0  0  0  0  0  0  0  0  0  0
   -2.2751    3.5624   -1.7550 C   0  0  0  0  0  0  0  0  0  0  0  0
   -3.0695    3.9102   -2.4261 H   0  0  0  0  0  0  0  0  0  0  0  0
   -1.5591    2.9710   -2.3301 H   0  0  0  0  0  0  0  0  0  0  0  0
   -1.7555    4.4495   -1.3726 H   0  0  0  0  0  0  0  0  0  0  0  0
   -2.1494    0.1258    0.5094 N   0  0  0  0  0  0  0  0  0  0  0  0
    0.0002    0.3267    1.9716 N   0  0  0  0  0  0  0  0  0  0  0  0
    2.1559    0.0750    0.5222 N   0  0  0  0  0  0  0  0  0  0  0  0
    0.0434    1.2765   -0.9033 O   0  0  0  0  0  0  0  0  0  0  0  0
    0.0341    1.2464   -2.2158 O   0  0  0  0  0  0  0  0  0  0  0  0
   -0.0583   -1.3310   -1.5454 O   0  0  0  0  0  0  0  0  0  0  0  0
   -0.0329   -0.6099   -2.2153 H   0  0  0  0  0  0  0  0  0  0  0  0
   -0.0379   -2.1372    1.0274 N   0  0  0  0  0  0  0  0  0  0  0  0
   -0.0158   -3.2375    0.5027 N   0  3  0  0  0  0  0  0  0  0  0  0
   -0.0009   -4.3156    0.1017 N   0  5  0  0  0  0  0  0  0  0  0  0
  1 83  1  0  0  0  0
  1 85  1  0  0  0  0
  2 12  1  0  0  0  0
  2  3  1  0  0  0  0
  3  4  2  0  0  0  0
  4  5  1  0  0  0  0
  4  6  1  0  0  0  0
  6  7  1  0  0  0  0
  8  9  1  0  0  0  0
  8  6  2  0  0  0  0
 10  8  1  0  0  0  0
 11 16  1  0  0  0  0
 11 10  1  0  0  0  0
 12 15  1  0  0  0  0
 12 14  1  0  0  0  0
 13 12  1  0  0  0  0
 16 17  1  0  0  0  0
 16 18  1  0  0  0  0
 19 16  1  0  0  0  0
 20 80  1  0  0  0  0
 21 29  1  0  0  0  0
 21 20  1  0  0  0  0
 22 21  2  0  0  0  0
 23 22  1  0  0  0  0
 24 22  1  0  0  0  0
 24 26  2  0  0  0  0
 25 24  1  0  0  0  0
 26 28  1  0  0  0  0
 27 26  1  0  0  0  0
 28 20  2  0  0  0  0
 28 39  1  0  0  0  0
 29 30  1  0  0  0  0
 29 31  1  0  0  0  0
 31 33  1  0  0  0  0
 31 32  1  0  0  0  0
 34 31  1  0  0  0  0
 35 37  1  0  0  0  0
 35 29  1  0  0  0  0
 36 35  1  0  0  0  0
 38 35  1  0  0  0  0
 39 40  1  0  0  0  0
 39 45  1  0  0  0  0
 41 43  1  0  0  0  0
 41 39  1  0  0  0  0
 42 41  1  0  0  0  0
 44 41  1  0  0  0  0
 45 47  1  0  0  0  0
 45 48  1  0  0  0  0
 46 45  1  0  0  0  0
 49 78  1  0  0  0  0
 50 49  1  0  0  0  0
 50 58  1  0  0  0  0
 51 50  2  0  0  0  0
 52 51  1  0  0  0  0
 53 55  2  0  0  0  0
 53 51  1  0  0  0  0
 54 53  1  0  0  0  0
 55 57  1  0  0  0  0
 56 55  1  0  0  0  0
 57 68  1  0  0  0  0
 57 49  2  0  0  0  0
 58 59  1  0  0  0  0
 58 64  1  0  0  0  0
 60 62  1  0  0  0  0
 60 58  1  0  0  0  0
 61 60  1  0  0  0  0
 63 60  1  0  0  0  0
 64 67  1  0  0  0  0
 64 66  1  0  0  0  0
 65 64  1  0  0  0  0
 68 69  1  0  0  0  0
 68 70  1  0  0  0  0
 70 72  1  0  0  0  0
 70 73  1  0  0  0  0
 71 70  1  0  0  0  0
 74 77  1  0  0  0  0
 74 68  1  0  0  0  0
 75 74  1  0  0  0  0
 76 74  1  0  0  0  0
 78 11  2  0  0  0  0
 78  1  9  0  0  0  0
 79 10  2  0  0  0  0
 79  3  1  0  0  0  0
 79  1  9  0  0  0  0
 80  2  2  0  0  0  0
 80  1  9  0  0  0  0
 81  1  9  0  0  0  0
 82 81  2  0  0  0  0
 84 83  1  0  0  0  0
 86 85  2  0  0  0  0
 87 86  2  0  0  0  0
M  CHG  2  86   1  87  -1
M  END
$$$$
