
 OpenBabel02052520053D

 84 88  0  0  0  0  0  0  0  0999 V2000
   -0.0001   -0.3175   -0.1405 Fe  0  0  0  0  0  0  0  0  0  0  0  0
    2.3893    0.1228    1.7545 C   0  0  0  0  0  0  0  0  0  0  0  0
    1.1691    0.1826    2.6165 C   0  0  0  0  0  0  0  0  0  0  0  0
    1.2058    0.1960    4.0158 C   0  0  0  0  0  0  0  0  0  0  0  0
    2.1493    0.1848    4.5480 H   0  0  0  0  0  0  0  0  0  0  0  0
    0.0001    0.2078    4.7152 C   0  0  0  0  0  0  0  0  0  0  0  0
    0.0001    0.2136    5.8009 H   0  0  0  0  0  0  0  0  0  0  0  0
   -1.2057    0.1965    4.0158 C   0  0  0  0  0  0  0  0  0  0  0  0
   -2.1492    0.1855    4.5479 H   0  0  0  0  0  0  0  0  0  0  0  0
   -1.1689    0.1831    2.6165 C   0  0  0  0  0  0  0  0  0  0  0  0
   -2.3891    0.1238    1.7544 C   0  0  0  0  0  0  0  0  0  0  0  0
    3.7368    0.1327    2.4270 C   0  0  0  0  0  0  0  0  0  0  0  0
    4.5385    0.1300    1.6888 H   0  0  0  0  0  0  0  0  0  0  0  0
    3.8379   -0.7615    3.0548 H   0  0  0  0  0  0  0  0  0  0  0  0
    3.8500    1.0092    3.0746 H   0  0  0  0  0  0  0  0  0  0  0  0
   -3.7367    0.1334    2.4269 C   0  0  0  0  0  0  0  0  0  0  0  0
   -3.8495    1.0092    3.0755 H   0  0  0  0  0  0  0  0  0  0  0  0
   -3.8381   -0.7615    3.0536 H   0  0  0  0  0  0  0  0  0  0  0  0
   -4.5383    0.1319    1.6887 H   0  0  0  0  0  0  0  0  0  0  0  0
    3.2943    0.0328   -0.4384 C   0  0  0  0  0  0  0  0  0  0  0  0
    3.8153    1.2689   -0.8788 C   0  0  0  0  0  0  0  0  0  0  0  0
    4.8722    1.2431   -1.7964 C   0  0  0  0  0  0  0  0  0  0  0  0
    5.2957    2.1823   -2.1402 H   0  0  0  0  0  0  0  0  0  0  0  0
    5.3850    0.0426   -2.2787 C   0  0  0  0  0  0  0  0  0  0  0  0
    6.2019    0.0468   -2.9953 H   0  0  0  0  0  0  0  0  0  0  0  0
    4.8415   -1.1610   -1.8415 C   0  0  0  0  0  0  0  0  0  0  0  0
    5.2346   -2.0994   -2.2220 H   0  0  0  0  0  0  0  0  0  0  0  0
    3.7915   -1.1957   -0.9170 C   0  0  0  0  0  0  0  0  0  0  0  0
    3.2813    2.6115   -0.3925 C   0  0  0  0  0  0  0  0  0  0  0  0
    2.3664    2.4296    0.1775 H   0  0  0  0  0  0  0  0  0  0  0  0
    4.2858    3.3096    0.5456 C   0  0  0  0  0  0  0  0  0  0  0  0
    4.5272    2.6897    1.4157 H   0  0  0  0  0  0  0  0  0  0  0  0
    3.8799    4.2624    0.9068 H   0  0  0  0  0  0  0  0  0  0  0  0
    5.2250    3.5212    0.0211 H   0  0  0  0  0  0  0  0  0  0  0  0
    2.9122    3.5353   -1.5680 C   0  0  0  0  0  0  0  0  0  0  0  0
    3.8045    3.8668   -2.1115 H   0  0  0  0  0  0  0  0  0  0  0  0
    2.3975    4.4309   -1.2006 H   0  0  0  0  0  0  0  0  0  0  0  0
    2.2540    3.0255   -2.2767 H   0  0  0  0  0  0  0  0  0  0  0  0
    3.2252   -2.5297   -0.4594 C   0  0  0  0  0  0  0  0  0  0  0  0
    2.4527   -2.3428    0.2869 H   0  0  0  0  0  0  0  0  0  0  0  0
    2.5303   -3.2607   -1.6219 C   0  0  0  0  0  0  0  0  0  0  0  0
    1.7442   -2.6339   -2.0525 H   0  0  0  0  0  0  0  0  0  0  0  0
    2.0640   -4.1815   -1.2559 H   0  0  0  0  0  0  0  0  0  0  0  0
    3.2444   -3.5213   -2.4139 H   0  0  0  0  0  0  0  0  0  0  0  0
    4.3017   -3.4092    0.2020 C   0  0  0  0  0  0  0  0  0  0  0  0
    5.0887   -3.6953   -0.5066 H   0  0  0  0  0  0  0  0  0  0  0  0
    3.8475   -4.3299    0.5856 H   0  0  0  0  0  0  0  0  0  0  0  0
    4.7833   -2.8910    1.0410 H   0  0  0  0  0  0  0  0  0  0  0  0
   -3.2942    0.0343   -0.4384 C   0  0  0  0  0  0  0  0  0  0  0  0
   -3.7929   -1.1940   -0.9158 C   0  0  0  0  0  0  0  0  0  0  0  0
   -4.8430   -1.1589   -1.8402 C   0  0  0  0  0  0  0  0  0  0  0  0
   -5.2372   -2.0972   -2.2198 H   0  0  0  0  0  0  0  0  0  0  0  0
   -5.3852    0.0450   -2.2784 C   0  0  0  0  0  0  0  0  0  0  0  0
   -6.2021    0.0494   -2.9949 H   0  0  0  0  0  0  0  0  0  0  0  0
   -4.8708    1.2453   -1.7974 C   0  0  0  0  0  0  0  0  0  0  0  0
   -5.2933    2.1847   -2.1420 H   0  0  0  0  0  0  0  0  0  0  0  0
   -3.8137    1.2707   -0.8800 C   0  0  0  0  0  0  0  0  0  0  0  0
   -3.2280   -2.5282   -0.4574 C   0  0  0  0  0  0  0  0  0  0  0  0
   -2.4553   -2.3416    0.2890 H   0  0  0  0  0  0  0  0  0  0  0  0
   -2.5335   -3.2604   -1.6194 C   0  0  0  0  0  0  0  0  0  0  0  0
   -3.2476   -3.5207   -2.4114 H   0  0  0  0  0  0  0  0  0  0  0  0
   -2.0680   -4.1815   -1.2529 H   0  0  0  0  0  0  0  0  0  0  0  0
   -1.7466   -2.6345   -2.0501 H   0  0  0  0  0  0  0  0  0  0  0  0
   -4.3053   -3.4065    0.2042 C   0  0  0  0  0  0  0  0  0  0  0  0
   -5.0924   -3.6923   -0.5044 H   0  0  0  0  0  0  0  0  0  0  0  0
   -4.7867   -2.8874    1.0429 H   0  0  0  0  0  0  0  0  0  0  0  0
   -3.8520   -4.3274    0.5885 H   0  0  0  0  0  0  0  0  0  0  0  0
   -3.2780    2.6128   -0.3946 C   0  0  0  0  0  0  0  0  0  0  0  0
   -2.3622    2.4301    0.1736 H   0  0  0  0  0  0  0  0  0  0  0  0
   -4.2803    3.3114    0.5453 C   0  0  0  0  0  0  0  0  0  0  0  0
   -5.2203    3.5236    0.0224 H   0  0  0  0  0  0  0  0  0  0  0  0
   -3.8733    4.2639    0.9060 H   0  0  0  0  0  0  0  0  0  0  0  0
   -4.5207    2.6916    1.4158 H   0  0  0  0  0  0  0  0  0  0  0  0
   -2.9100    3.5367   -1.5704 C   0  0  0  0  0  0  0  0  0  0  0  0
   -3.8029    3.8689   -2.1127 H   0  0  0  0  0  0  0  0  0  0  0  0
   -2.2532    3.0266   -2.2801 H   0  0  0  0  0  0  0  0  0  0  0  0
   -2.3942    4.4319   -1.2036 H   0  0  0  0  0  0  0  0  0  0  0  0
   -2.1925    0.0294    0.4883 N   0  0  0  0  0  0  0  0  0  0  0  0
    0.0001    0.1988    1.9648 N   0  0  0  0  0  0  0  0  0  0  0  0
    2.1926    0.0280    0.4884 N   0  0  0  0  0  0  0  0  0  0  0  0
    0.0022    2.0234   -0.1973 O   0  0  0  0  0  0  0  0  0  0  0  0
    0.0003    2.6817   -1.2319 O   0  0  0  0  0  0  0  0  0  0  0  0
   -0.0009   -2.5486    0.7860 Cl  0  0  0  0  0  0  0  0  0  0  0  0
   -0.0012   -0.3288   -2.3914 Cl  0  0  0  0  0  0  0  0  0  0  0  0
  1 80  1  0  0  0  0
  1 83  1  0  0  0  0
  1 79  1  0  0  0  0
  2 12  1  0  0  0  0
  2  3  2  0  0  0  0
  3  4  1  0  0  0  0
  4  5  1  0  0  0  0
  4  6  2  0  0  0  0
  6  7  1  0  0  0  0
  8  9  1  0  0  0  0
  8  6  1  0  0  0  0
 10  8  2  0  0  0  0
 11 16  1  0  0  0  0
 11 10  1  0  0  0  0
 12 14  1  0  0  0  0
 12 15  1  0  0  0  0
 13 12  1  0  0  0  0
 16 18  1  0  0  0  0
 16 17  1  0  0  0  0
 19 16  1  0  0  0  0
 20 80  1  0  0  0  0
 21 20  1  0  0  0  0
 21 29  1  0  0  0  0
 22 21  2  0  0  0  0
 23 22  1  0  0  0  0
 24 26  2  0  0  0  0
 24 22  1  0  0  0  0
 25 24  1  0  0  0  0
 26 28  1  0  0  0  0
 27 26  1  0  0  0  0
 28 39  1  0  0  0  0
 28 20  2  0  0  0  0
 29 30  1  0  0  0  0
 29 31  1  0  0  0  0
 31 33  1  0  0  0  0
 31 32  1  0  0  0  0
 34 31  1  0  0  0  0
 35 37  1  0  0  0  0
 35 29  1  0  0  0  0
 36 35  1  0  0  0  0
 38 35  1  0  0  0  0
 39 45  1  0  0  0  0
 39 40  1  0  0  0  0
 41 43  1  0  0  0  0
 41 39  1  0  0  0  0
 42 41  1  0  0  0  0
 44 41  1  0  0  0  0
 45 47  1  0  0  0  0
 45 48  1  0  0  0  0
 46 45  1  0  0  0  0
 49 78  1  0  0  0  0
 50 58  1  0  0  0  0
 50 49  1  0  0  0  0
 51 50  2  0  0  0  0
 52 51  1  0  0  0  0
 53 51  1  0  0  0  0
 53 55  2  0  0  0  0
 54 53  1  0  0  0  0
 55 57  1  0  0  0  0
 56 55  1  0  0  0  0
 57 49  2  0  0  0  0
 57 68  1  0  0  0  0
 58 64  1  0  0  0  0
 58 59  1  0  0  0  0
 60 62  1  0  0  0  0
 60 58  1  0  0  0  0
 61 60  1  0  0  0  0
 63 60  1  0  0  0  0
 64 67  1  0  0  0  0
 64 66  1  0  0  0  0
 65 64  1  0  0  0  0
 68 69  1  0  0  0  0
 68 70  1  0  0  0  0
 70 72  1  0  0  0  0
 70 73  1  0  0  0  0
 71 70  1  0  0  0  0
 74 77  1  0  0  0  0
 74 68  1  0  0  0  0
 75 74  1  0  0  0  0
 76 74  1  0  0  0  0
 78 11  2  0  0  0  0
 78  1  9  0  0  0  0
 79 10  1  0  0  0  0
 79  3  1  0  0  0  0
 80  2  1  0  0  0  0
 81  1  9  0  0  0  0
 82 81  2  0  0  0  0
 84  1  1  0  0  0  0
M  END
$$$$
