
 OpenBabel02052520053D

 85 89  0  0  0  0  0  0  0  0999 V2000
   -0.0399    0.1964   -0.0612 Fe  0  0  0  0  0  0  0  0  0  0  0  0
   -2.3927   -0.5027    1.7533 C   0  0  0  0  0  0  0  0  0  0  0  0
   -1.1627   -0.6356    2.5913 C   0  0  0  0  0  0  0  0  0  0  0  0
   -1.1826   -0.9242    3.9608 C   0  0  0  0  0  0  0  0  0  0  0  0
   -2.1195   -1.0919    4.4786 H   0  0  0  0  0  0  0  0  0  0  0  0
    0.0279   -0.9818    4.6495 C   0  0  0  0  0  0  0  0  0  0  0  0
    0.0414   -1.1992    5.7131 H   0  0  0  0  0  0  0  0  0  0  0  0
    1.2206   -0.7539    3.9657 C   0  0  0  0  0  0  0  0  0  0  0  0
    2.1689   -0.7887    4.4883 H   0  0  0  0  0  0  0  0  0  0  0  0
    1.1675   -0.4814    2.5928 C   0  0  0  0  0  0  0  0  0  0  0  0
    2.3750   -0.2336    1.7492 C   0  0  0  0  0  0  0  0  0  0  0  0
   -3.7348   -0.7526    2.3884 C   0  0  0  0  0  0  0  0  0  0  0  0
   -4.5344   -0.6221    1.6591 H   0  0  0  0  0  0  0  0  0  0  0  0
   -3.8987   -0.0565    3.2197 H   0  0  0  0  0  0  0  0  0  0  0  0
   -3.7853   -1.7715    2.7902 H   0  0  0  0  0  0  0  0  0  0  0  0
    3.7150   -0.1392    2.4305 C   0  0  0  0  0  0  0  0  0  0  0  0
    3.9411   -1.0576    2.9834 H   0  0  0  0  0  0  0  0  0  0  0  0
    3.7051    0.6888    3.1497 H   0  0  0  0  0  0  0  0  0  0  0  0
    4.5069    0.0375    1.7030 H   0  0  0  0  0  0  0  0  0  0  0  0
   -3.2864    0.0280   -0.3864 C   0  0  0  0  0  0  0  0  0  0  0  0
   -3.7811   -1.0748   -1.1092 C   0  0  0  0  0  0  0  0  0  0  0  0
   -4.8241   -0.8397   -2.0131 C   0  0  0  0  0  0  0  0  0  0  0  0
   -5.2251   -1.6736   -2.5824 H   0  0  0  0  0  0  0  0  0  0  0  0
   -5.3472    0.4366   -2.2009 C   0  0  0  0  0  0  0  0  0  0  0  0
   -6.1570    0.5949   -2.9080 H   0  0  0  0  0  0  0  0  0  0  0  0
   -4.8206    1.5115   -1.4889 C   0  0  0  0  0  0  0  0  0  0  0  0
   -5.2217    2.5089   -1.6452 H   0  0  0  0  0  0  0  0  0  0  0  0
   -3.7741    1.3356   -0.5780 C   0  0  0  0  0  0  0  0  0  0  0  0
   -3.2109   -2.4786   -0.9516 C   0  0  0  0  0  0  0  0  0  0  0  0
   -2.3885   -2.4394   -0.2341 H   0  0  0  0  0  0  0  0  0  0  0  0
   -4.2673   -3.4592   -0.4087 C   0  0  0  0  0  0  0  0  0  0  0  0
   -4.6747   -3.1204    0.5520 H   0  0  0  0  0  0  0  0  0  0  0  0
   -3.8274   -4.4528   -0.2620 H   0  0  0  0  0  0  0  0  0  0  0  0
   -5.1083   -3.5668   -1.1040 H   0  0  0  0  0  0  0  0  0  0  0  0
   -2.6061   -2.9788   -2.2763 C   0  0  0  0  0  0  0  0  0  0  0  0
   -3.3753   -3.0880   -3.0504 H   0  0  0  0  0  0  0  0  0  0  0  0
   -2.1312   -3.9559   -2.1291 H   0  0  0  0  0  0  0  0  0  0  0  0
   -1.8436   -2.2841   -2.6375 H   0  0  0  0  0  0  0  0  0  0  0  0
   -3.1994    2.5248    0.1795 C   0  0  0  0  0  0  0  0  0  0  0  0
   -2.3223    2.1872    0.7369 H   0  0  0  0  0  0  0  0  0  0  0  0
   -2.6973    3.6140   -0.7856 C   0  0  0  0  0  0  0  0  0  0  0  0
   -1.9837    3.1901   -1.4999 H   0  0  0  0  0  0  0  0  0  0  0  0
   -2.2000    4.4136   -0.2228 H   0  0  0  0  0  0  0  0  0  0  0  0
   -3.5183    4.0685   -1.3533 H   0  0  0  0  0  0  0  0  0  0  0  0
   -4.2195    3.0884    1.1857 C   0  0  0  0  0  0  0  0  0  0  0  0
   -5.1172    3.4615    0.6775 H   0  0  0  0  0  0  0  0  0  0  0  0
   -3.7825    3.9199    1.7517 H   0  0  0  0  0  0  0  0  0  0  0  0
   -4.5406    2.3210    1.9014 H   0  0  0  0  0  0  0  0  0  0  0  0
    3.2517    0.1340   -0.4267 C   0  0  0  0  0  0  0  0  0  0  0  0
    3.6240    1.4604   -0.7257 C   0  0  0  0  0  0  0  0  0  0  0  0
    4.6648    1.6527   -1.6415 C   0  0  0  0  0  0  0  0  0  0  0  0
    4.9706    2.6666   -1.8837 H   0  0  0  0  0  0  0  0  0  0  0  0
    5.3108    0.5762   -2.2414 C   0  0  0  0  0  0  0  0  0  0  0  0
    6.1165    0.7482   -2.9500 H   0  0  0  0  0  0  0  0  0  0  0  0
    4.9188   -0.7234   -1.9317 C   0  0  0  0  0  0  0  0  0  0  0  0
    5.4261   -1.5609   -2.4010 H   0  0  0  0  0  0  0  0  0  0  0  0
    3.8804   -0.9769   -1.0282 C   0  0  0  0  0  0  0  0  0  0  0  0
    2.9561    2.6618   -0.0700 C   0  0  0  0  0  0  0  0  0  0  0  0
    2.1268    2.3086    0.5464 H   0  0  0  0  0  0  0  0  0  0  0  0
    2.3327    3.6014   -1.1182 C   0  0  0  0  0  0  0  0  0  0  0  0
    3.0938    4.0542   -1.7654 H   0  0  0  0  0  0  0  0  0  0  0  0
    1.7958    4.4163   -0.6166 H   0  0  0  0  0  0  0  0  0  0  0  0
    1.6254    3.0551   -1.7498 H   0  0  0  0  0  0  0  0  0  0  0  0
    3.9438    3.4157    0.8403 C   0  0  0  0  0  0  0  0  0  0  0  0
    4.7830    3.8295    0.2676 H   0  0  0  0  0  0  0  0  0  0  0  0
    4.3636    2.7569    1.6106 H   0  0  0  0  0  0  0  0  0  0  0  0
    3.4386    4.2485    1.3441 H   0  0  0  0  0  0  0  0  0  0  0  0
    3.4958   -2.4139   -0.6939 C   0  0  0  0  0  0  0  0  0  0  0  0
    2.5274   -2.3966   -0.1883 H   0  0  0  0  0  0  0  0  0  0  0  0
    4.5269   -3.0509    0.2593 C   0  0  0  0  0  0  0  0  0  0  0  0
    5.5169   -3.0904   -0.2111 H   0  0  0  0  0  0  0  0  0  0  0  0
    4.2335   -4.0763    0.5151 H   0  0  0  0  0  0  0  0  0  0  0  0
    4.6287   -2.4841    1.1910 H   0  0  0  0  0  0  0  0  0  0  0  0
    3.3261   -3.2817   -1.9533 C   0  0  0  0  0  0  0  0  0  0  0  0
    4.2864   -3.4693   -2.4487 H   0  0  0  0  0  0  0  0  0  0  0  0
    2.6531   -2.8023   -2.6675 H   0  0  0  0  0  0  0  0  0  0  0  0
    2.8993   -4.2536   -1.6811 H   0  0  0  0  0  0  0  0  0  0  0  0
    2.1691   -0.0921    0.4907 N   0  0  0  0  0  0  0  0  0  0  0  0
   -0.0047   -0.4359    1.9500 N   0  0  0  0  0  0  0  0  0  0  0  0
   -2.2043   -0.1600    0.5333 N   0  0  0  0  0  0  0  0  0  0  0  0
   -0.1649   -1.7021   -0.5661 O   0  0  0  0  0  0  0  0  0  0  0  0
    0.5659   -2.1025   -1.5455 O   0  0  0  0  0  0  0  0  0  0  0  0
   -0.0416    1.9093    0.6462 O   0  0  0  0  0  0  0  0  0  0  0  0
   -0.1571    2.5320   -0.0913 H   0  0  0  0  0  0  0  0  0  0  0  0
   -0.2284    0.9422   -2.2119 Cl  0  0  0  0  0  0  0  0  0  0  0  0
  1 80  1  0  0  0  0
  1 83  1  0  0  0  0
  1 79  1  0  0  0  0
  2 12  1  0  0  0  0
  2  3  2  0  0  0  0
  3  4  1  0  0  0  0
  4  5  1  0  0  0  0
  4  6  2  0  0  0  0
  6  7  1  0  0  0  0
  8  9  1  0  0  0  0
  8  6  1  0  0  0  0
 10  8  2  0  0  0  0
 11 16  1  0  0  0  0
 11 10  1  0  0  0  0
 12 15  1  0  0  0  0
 12 14  1  0  0  0  0
 13 12  1  0  0  0  0
 16 17  1  0  0  0  0
 16 18  1  0  0  0  0
 19 16  1  0  0  0  0
 20 80  1  0  0  0  0
 21 29  1  0  0  0  0
 21 20  1  0  0  0  0
 22 21  2  0  0  0  0
 23 22  1  0  0  0  0
 24 22  1  0  0  0  0
 24 26  2  0  0  0  0
 25 24  1  0  0  0  0
 26 28  1  0  0  0  0
 27 26  1  0  0  0  0
 28 20  2  0  0  0  0
 28 39  1  0  0  0  0
 29 31  1  0  0  0  0
 29 30  1  0  0  0  0
 31 33  1  0  0  0  0
 31 32  1  0  0  0  0
 34 31  1  0  0  0  0
 35 37  1  0  0  0  0
 35 29  1  0  0  0  0
 36 35  1  0  0  0  0
 38 35  1  0  0  0  0
 39 40  1  0  0  0  0
 39 45  1  0  0  0  0
 41 43  1  0  0  0  0
 41 39  1  0  0  0  0
 42 41  1  0  0  0  0
 44 41  1  0  0  0  0
 45 47  1  0  0  0  0
 45 48  1  0  0  0  0
 46 45  1  0  0  0  0
 49 78  1  0  0  0  0
 50 49  1  0  0  0  0
 50 58  1  0  0  0  0
 51 50  2  0  0  0  0
 52 51  1  0  0  0  0
 53 55  2  0  0  0  0
 53 51  1  0  0  0  0
 54 53  1  0  0  0  0
 55 57  1  0  0  0  0
 56 55  1  0  0  0  0
 57 68  1  0  0  0  0
 57 49  2  0  0  0  0
 58 59  1  0  0  0  0
 58 64  1  0  0  0  0
 60 62  1  0  0  0  0
 60 58  1  0  0  0  0
 61 60  1  0  0  0  0
 63 60  1  0  0  0  0
 64 67  1  0  0  0  0
 64 66  1  0  0  0  0
 65 64  1  0  0  0  0
 68 69  1  0  0  0  0
 68 70  1  0  0  0  0
 70 72  1  0  0  0  0
 70 73  1  0  0  0  0
 71 70  1  0  0  0  0
 74 77  1  0  0  0  0
 74 68  1  0  0  0  0
 75 74  1  0  0  0  0
 76 74  1  0  0  0  0
 78 11  2  0  0  0  0
 78  1  9  0  0  0  0
 79  3  1  0  0  0  0
 79 10  1  0  0  0  0
 80  2  1  0  0  0  0
 81  1  9  0  0  0  0
 82 81  2  0  0  0  0
 84 83  1  0  0  0  0
 85  1  1  0  0  0  0
M  END
$$$$
