
 OpenBabel02052520063D

 95100  0  0  0  0  0  0  0  0999 V2000
   -0.0491   -0.5672    0.3828 Fe  0  0  0  0  0  0  0  0  0  0  0  0
   -2.4561   -1.9917   -0.9034 C   0  0  0  0  0  0  0  0  0  0  0  0
   -1.2462   -2.7969   -1.2594 C   0  0  0  0  0  0  0  0  0  0  0  0
   -1.2926   -4.0586   -1.8614 C   0  0  0  0  0  0  0  0  0  0  0  0
   -2.2400   -4.5307   -2.0933 H   0  0  0  0  0  0  0  0  0  0  0  0
   -0.0902   -4.7039   -2.1506 C   0  0  0  0  0  0  0  0  0  0  0  0
   -0.0967   -5.6873   -2.6107 H   0  0  0  0  0  0  0  0  0  0  0  0
    1.1196   -4.0829   -1.8455 C   0  0  0  0  0  0  0  0  0  0  0  0
    2.0591   -4.5753   -2.0656 H   0  0  0  0  0  0  0  0  0  0  0  0
    1.0918   -2.8180   -1.2443 C   0  0  0  0  0  0  0  0  0  0  0  0
    2.3147   -2.0439   -0.8707 C   0  0  0  0  0  0  0  0  0  0  0  0
   -3.8051   -2.4872   -1.3501 C   0  0  0  0  0  0  0  0  0  0  0  0
   -4.5915   -1.8012   -1.0348 H   0  0  0  0  0  0  0  0  0  0  0  0
   -4.0020   -3.4721   -0.9099 H   0  0  0  0  0  0  0  0  0  0  0  0
   -3.8413   -2.5963   -2.4397 H   0  0  0  0  0  0  0  0  0  0  0  0
    3.6563   -2.6506   -1.1867 C   0  0  0  0  0  0  0  0  0  0  0  0
    3.7478   -2.8704   -2.2557 H   0  0  0  0  0  0  0  0  0  0  0  0
    3.7646   -3.5976   -0.6446 H   0  0  0  0  0  0  0  0  0  0  0  0
    4.4653   -1.9833   -0.8900 H   0  0  0  0  0  0  0  0  0  0  0  0
   -3.2439    0.0656    0.0421 C   0  0  0  0  0  0  0  0  0  0  0  0
   -3.6679    0.9473   -0.9786 C   0  0  0  0  0  0  0  0  0  0  0  0
   -4.5731    1.9583   -0.6260 C   0  0  0  0  0  0  0  0  0  0  0  0
   -4.9129    2.6492   -1.3920 H   0  0  0  0  0  0  0  0  0  0  0  0
   -5.0329    2.1031    0.6778 C   0  0  0  0  0  0  0  0  0  0  0  0
   -5.7309    2.8986    0.9248 H   0  0  0  0  0  0  0  0  0  0  0  0
   -4.5901    1.2277    1.6683 C   0  0  0  0  0  0  0  0  0  0  0  0
   -4.9459    1.3479    2.6860 H   0  0  0  0  0  0  0  0  0  0  0  0
   -3.6868    0.2023    1.3781 C   0  0  0  0  0  0  0  0  0  0  0  0
   -3.1793    0.8749   -2.4230 C   0  0  0  0  0  0  0  0  0  0  0  0
   -2.3923    0.1192   -2.4874 H   0  0  0  0  0  0  0  0  0  0  0  0
   -4.3195    0.4703   -3.3796 C   0  0  0  0  0  0  0  0  0  0  0  0
   -4.7795   -0.4815   -3.0950 H   0  0  0  0  0  0  0  0  0  0  0  0
   -3.9436    0.3758   -4.4056 H   0  0  0  0  0  0  0  0  0  0  0  0
   -5.1116    1.2283   -3.3841 H   0  0  0  0  0  0  0  0  0  0  0  0
   -2.5542    2.2075   -2.8812 C   0  0  0  0  0  0  0  0  0  0  0  0
   -3.3103    2.9989   -2.9488 H   0  0  0  0  0  0  0  0  0  0  0  0
   -2.1117    2.0894   -3.8777 H   0  0  0  0  0  0  0  0  0  0  0  0
   -1.7710    2.5388   -2.1973 H   0  0  0  0  0  0  0  0  0  0  0  0
   -3.2320   -0.7807    2.4432 C   0  0  0  0  0  0  0  0  0  0  0  0
   -2.2302   -1.1211    2.1759 H   0  0  0  0  0  0  0  0  0  0  0  0
   -3.1257   -0.1688    3.8459 C   0  0  0  0  0  0  0  0  0  0  0  0
   -2.5130    0.7377    3.8266 H   0  0  0  0  0  0  0  0  0  0  0  0
   -2.6436   -0.8875    4.5172 H   0  0  0  0  0  0  0  0  0  0  0  0
   -4.1073    0.0747    4.2725 H   0  0  0  0  0  0  0  0  0  0  0  0
   -4.1421   -2.0249    2.4538 C   0  0  0  0  0  0  0  0  0  0  0  0
   -5.1711   -1.7584    2.7273 H   0  0  0  0  0  0  0  0  0  0  0  0
   -3.7696   -2.7588    3.1771 H   0  0  0  0  0  0  0  0  0  0  0  0
   -4.1715   -2.5098    1.4714 H   0  0  0  0  0  0  0  0  0  0  0  0
    3.2024   -0.0156    0.0296 C   0  0  0  0  0  0  0  0  0  0  0  0
    3.6699    0.0355    1.3627 C   0  0  0  0  0  0  0  0  0  0  0  0
    4.6695    0.9637    1.6717 C   0  0  0  0  0  0  0  0  0  0  0  0
    5.0448    1.0148    2.6886 H   0  0  0  0  0  0  0  0  0  0  0  0
    5.1869    1.8215    0.7045 C   0  0  0  0  0  0  0  0  0  0  0  0
    5.9613    2.5376    0.9666 H   0  0  0  0  0  0  0  0  0  0  0  0
    4.7037    1.7605   -0.5979 C   0  0  0  0  0  0  0  0  0  0  0  0
    5.1044    2.4363   -1.3472 H   0  0  0  0  0  0  0  0  0  0  0  0
    3.7008    0.8544   -0.9680 C   0  0  0  0  0  0  0  0  0  0  0  0
    3.1521   -0.9251    2.4217 C   0  0  0  0  0  0  0  0  0  0  0  0
    2.1624   -1.2665    2.1168 H   0  0  0  0  0  0  0  0  0  0  0  0
    2.9858   -0.2793    3.8053 C   0  0  0  0  0  0  0  0  0  0  0  0
    3.9498   -0.0427    4.2736 H   0  0  0  0  0  0  0  0  0  0  0  0
    2.4593   -0.9759    4.4666 H   0  0  0  0  0  0  0  0  0  0  0  0
    2.3905    0.6353    3.7376 H   0  0  0  0  0  0  0  0  0  0  0  0
    4.0563   -2.1702    2.5145 C   0  0  0  0  0  0  0  0  0  0  0  0
    5.0698   -1.8969    2.8348 H   0  0  0  0  0  0  0  0  0  0  0  0
    4.1393   -2.6848    1.5513 H   0  0  0  0  0  0  0  0  0  0  0  0
    3.6446   -2.8812    3.2397 H   0  0  0  0  0  0  0  0  0  0  0  0
    3.2021    0.8573   -2.4110 C   0  0  0  0  0  0  0  0  0  0  0  0
    2.2576    0.3077   -2.4468 H   0  0  0  0  0  0  0  0  0  0  0  0
    4.2071    0.1644   -3.3540 C   0  0  0  0  0  0  0  0  0  0  0  0
    5.1668    0.6951   -3.3470 H   0  0  0  0  0  0  0  0  0  0  0  0
    3.8300    0.1660   -4.3840 H   0  0  0  0  0  0  0  0  0  0  0  0
    4.4046   -0.8718   -3.0668 H   0  0  0  0  0  0  0  0  0  0  0  0
    2.9220    2.2831   -2.9285 C   0  0  0  0  0  0  0  0  0  0  0  0
    3.8542    2.8250   -3.1290 H   0  0  0  0  0  0  0  0  0  0  0  0
    2.3350    2.8613   -2.2128 H   0  0  0  0  0  0  0  0  0  0  0  0
    2.3642    2.2338   -3.8705 H   0  0  0  0  0  0  0  0  0  0  0  0
    2.1249   -0.9144   -0.2857 N   0  0  0  0  0  0  0  0  0  0  0  0
   -0.0728   -2.2167   -0.9780 N   0  0  0  0  0  0  0  0  0  0  0  0
   -2.2418   -0.9176   -0.2354 N   0  0  0  0  0  0  0  0  0  0  0  0
   -0.0023    1.0515    2.0163 S   0  0  0  0  0  0  0  0  0  0  0  0
    0.0729    2.5877    1.1455 C   0  0  0  0  0  0  0  0  0  0  0  0
   -1.1093    3.2437    0.7493 C   0  0  0  0  0  0  0  0  0  0  0  0
   -2.0696    2.7964    0.9882 H   0  0  0  0  0  0  0  0  0  0  0  0
   -1.0423    4.4340    0.0321 C   0  0  0  0  0  0  0  0  0  0  0  0
   -1.9610    4.9248   -0.2794 H   0  0  0  0  0  0  0  0  0  0  0  0
    0.1994    4.9936   -0.2979 C   0  0  0  0  0  0  0  0  0  0  0  0
    0.2454    5.9224   -0.8606 H   0  0  0  0  0  0  0  0  0  0  0  0
    1.3752    4.3534    0.0967 C   0  0  0  0  0  0  0  0  0  0  0  0
    2.3429    4.7763   -0.1613 H   0  0  0  0  0  0  0  0  0  0  0  0
    1.3175    3.1528    0.8063 C   0  0  0  0  0  0  0  0  0  0  0  0
    2.2301    2.6379    1.0903 H   0  0  0  0  0  0  0  0  0  0  0  0
   -0.3009    0.6779   -1.2008 O   0  0  0  0  0  0  0  0  0  0  0  0
    0.4081    1.6871   -1.4702 O   0  0  0  0  0  0  0  0  0  0  0  0
   -0.0761   -2.3896    1.9860 Cl  0  0  0  0  0  0  0  0  0  0  0  0
  1 95  1  0  0  0  0
  1 81  1  0  0  0  0
  2 80  1  0  0  0  0
  3 79  1  0  0  0  0
  3  2  2  0  0  0  0
  4  3  1  0  0  0  0
  5  4  1  0  0  0  0
  6  4  2  0  0  0  0
  6  8  1  0  0  0  0
  7  6  1  0  0  0  0
  8 10  2  0  0  0  0
  9  8  1  0  0  0  0
 10 79  1  0  0  0  0
 10 11  1  0  0  0  0
 11 78  2  0  0  0  0
 12 13  1  0  0  0  0
 12 14  1  0  0  0  0
 12  2  1  0  0  0  0
 15 12  1  0  0  0  0
 16 19  1  0  0  0  0
 16 11  1  0  0  0  0
 16 18  1  0  0  0  0
 17 16  1  0  0  0  0
 20 28  2  0  0  0  0
 21 22  2  0  0  0  0
 21 20  1  0  0  0  0
 22 24  1  0  0  0  0
 23 22  1  0  0  0  0
 24 25  1  0  0  0  0
 24 26  2  0  0  0  0
 26 27  1  0  0  0  0
 28 26  1  0  0  0  0
 28 39  1  0  0  0  0
 29 21  1  0  0  0  0
 30 29  1  0  0  0  0
 31 32  1  0  0  0  0
 31 29  1  0  0  0  0
 33 31  1  0  0  0  0
 34 31  1  0  0  0  0
 35 29  1  0  0  0  0
 35 38  1  0  0  0  0
 36 35  1  0  0  0  0
 37 35  1  0  0  0  0
 39 45  1  0  0  0  0
 39 41  1  0  0  0  0
 40 39  1  0  0  0  0
 41 44  1  0  0  0  0
 41 43  1  0  0  0  0
 42 41  1  0  0  0  0
 45 46  1  0  0  0  0
 45 47  1  0  0  0  0
 48 45  1  0  0  0  0
 49 50  2  0  0  0  0
 50 51  1  0  0  0  0
 50 58  1  0  0  0  0
 51 52  1  0  0  0  0
 53 54  1  0  0  0  0
 53 51  2  0  0  0  0
 55 53  1  0  0  0  0
 56 55  1  0  0  0  0
 57 55  2  0  0  0  0
 57 49  1  0  0  0  0
 58 64  1  0  0  0  0
 58 60  1  0  0  0  0
 59 58  1  0  0  0  0
 60 61  1  0  0  0  0
 60 62  1  0  0  0  0
 63 60  1  0  0  0  0
 64 65  1  0  0  0  0
 64 67  1  0  0  0  0
 66 64  1  0  0  0  0
 68 57  1  0  0  0  0
 69 68  1  0  0  0  0
 70 71  1  0  0  0  0
 70 73  1  0  0  0  0
 70 68  1  0  0  0  0
 72 70  1  0  0  0  0
 74 68  1  0  0  0  0
 74 76  1  0  0  0  0
 75 74  1  0  0  0  0
 77 74  1  0  0  0  0
 78 49  1  0  0  0  0
 78  1  9  0  0  0  0
 79  1  1  0  0  0  0
 80 20  1  0  0  0  0
 80  1  1  0  0  0  0
 82 81  1  0  0  0  0
 83 84  1  0  0  0  0
 83 82  1  0  0  0  0
 85 83  2  0  0  0  0
 86 85  1  0  0  0  0
 87 85  1  0  0  0  0
 87 89  2  0  0  0  0
 88 87  1  0  0  0  0
 89 91  1  0  0  0  0
 90 89  1  0  0  0  0
 91 92  1  0  0  0  0
 91 82  2  0  0  0  0
 93  1  9  0  0  0  0
 94 93  2  0  0  0  0
M  END
$$$$
