
 OpenBabel02072512503D

 89 97  0  0  0  0  0  0  0  0999 V2000
    0.6672    0.2418   -0.1384 Fe  0  3  0  0  0 37  0  0  0  0  0  0
    3.5521    0.7068    0.0033 C   0  0  0  0  0  0  0  0  0  0  0  0
    4.8880    0.7759    0.3878 C   0  0  0  0  0  0  0  0  0  0  0  0
    5.2203    0.5875    1.7280 C   0  5  0  0  0  0  0  0  0  0  0  0
    4.1776    0.3573    2.6445 C   0  0  0  0  0  3  0  0  0  0  0  0
    2.8582    0.3403    2.2082 C   0  0  0  0  0  0  0  0  0  0  0  0
    1.7410    0.2139    3.1794 C   0  0  0  0  0  0  0  0  0  0  0  0
    0.7987    1.2480    3.2885 C   0  0  0  0  0  0  0  0  0  0  0  0
   -0.2459    1.1610    4.2042 C   0  0  0  0  0  0  0  0  0  0  0  0
   -0.3644    0.0336    5.0243 C   0  0  0  0  0  0  0  0  0  0  0  0
    0.5746   -0.9931    4.9298 C   0  0  0  0  0  0  0  0  0  0  0  0
    1.6269   -0.9023    4.0158 C   0  0  0  0  0  0  0  0  0  0  0  0
    3.1394    0.6983   -1.4592 C   0  0  1  0  0  0  0  0  0  0  0  0
    2.9218   -0.7660   -1.7928 C   0  0  0  0  0  0  0  0  0  0  0  0
    3.9457   -1.5383   -2.3359 C   0  0  0  0  0  0  0  0  0  0  0  0
    3.7586   -2.9122   -2.4606 C   0  0  0  0  0  0  0  0  0  0  0  0
    2.5229   -3.4521   -2.0769 C   0  0  0  0  0  0  0  0  0  0  0  0
    1.5188   -2.6194   -1.5827 C   0  0  0  0  0  0  0  0  0  0  0  0
    0.1573   -3.1652   -1.3656 C   0  0  0  0  0  0  0  0  0  0  0  0
   -0.0429   -4.3747   -0.6865 C   0  0  0  0  0  0  0  0  0  0  0  0
   -1.3212   -4.9258   -0.5881 C   0  0  0  0  0  0  0  0  0  0  0  0
   -2.4107   -4.2807   -1.1740 C   0  0  0  0  0  0  0  0  0  0  0  0
   -2.2202   -3.0714   -1.8502 C   0  0  0  0  0  0  0  0  0  0  0  0
   -0.9472   -2.5165   -1.9398 C   0  0  0  0  0  0  0  0  0  0  0  0
    1.8712    1.4596   -1.6359 N   0  0  1  0  0  0  0  0  0  0  0  0
    1.9335    2.8543   -1.1783 C   0  0  0  0  0  0  0  0  0  0  0  0
    0.6355    3.3058   -0.5294 C   0  0  0  0  0  0  0  0  0  0  0  0
    0.1187    4.5861   -0.7072 C   0  0  0  0  0  0  0  0  0  0  0  0
   -1.0630    4.9393   -0.0455 C   0  0  0  0  0  0  0  0  0  0  0  0
   -1.6814    3.9971    0.7741 C   0  0  0  0  0  0  0  0  0  0  0  0
   -1.0978    2.7369    0.8969 C   0  0  0  0  0  0  0  0  0  0  0  0
    0.0318    2.3960    0.2574 N   0  0  0  0  0  0  0  0  0  0  0  0
    1.2253    1.3173   -2.9494 C   0  0  0  0  0  0  0  0  0  0  0  0
   -0.2921    1.4198   -2.8732 C   0  0  0  0  0  0  0  0  0  0  0  0
   -1.0104    2.1064   -3.8438 C   0  0  0  0  0  0  0  0  0  0  0  0
   -2.4057    2.1265   -3.7378 C   0  0  0  0  0  0  0  0  0  0  0  0
   -3.0340    1.4941   -2.6767 C   0  0  0  0  0  0  0  0  0  0  0  0
   -2.2308    0.8342   -1.7210 C   0  0  0  0  0  0  0  0  0  0  0  0
   -0.8871    0.7903   -1.8423 N   0  0  0  0  0  0  0  0  0  0  0  0
   -2.7351    0.1893   -0.5935 N   0  0  0  0  0  0  0  0  0  0  0  0
   -4.0390    0.2419   -0.1178 C   0  0  0  0  0  0  0  0  0  0  0  0
   -4.9321    0.8483   -0.6992 O   0  0  0  0  0  0  0  0  0  0  0  0
   -4.2993   -0.5033    1.2114 C   0  0  0  0  0  0  0  0  0  0  0  0
   -5.7949   -0.3698    1.5421 C   0  0  0  0  0  0  0  0  0  0  0  0
   -3.4644    0.1347    2.3457 C   0  0  0  0  0  0  0  0  0  0  0  0
   -3.9367   -1.9969    1.0675 C   0  0  0  0  0  0  0  0  0  0  0  0
    2.5335    0.4863    0.8882 N   0  0  0  0  0  0  0  0  0  0  0  0
    1.7290   -1.2847   -1.3915 N   0  0  0  0  0  0  0  0  0  0  0  0
    5.6536    0.9600   -0.3616 H   0  0  0  0  0  0  0  0  0  0  0  0
    6.2522    0.6392    2.0608 H   0  0  0  0  0  0  0  0  0  0  0  0
    4.3819    0.2300    3.7026 H   0  0  0  0  0  0  0  0  0  0  0  0
    0.8956    2.1131    2.6434 H   0  0  0  0  0  0  0  0  0  0  0  0
   -0.9693    1.9692    4.2781 H   0  0  0  0  0  0  0  0  0  0  0  0
   -1.1869   -0.0428    5.7306 H   0  0  0  0  0  0  0  0  0  0  0  0
    0.4783   -1.8799    5.5493 H   0  0  0  0  0  0  0  0  0  0  0  0
    2.3396   -1.7160    3.9215 H   0  0  0  0  0  0  0  0  0  0  0  0
    3.9585    1.0989   -2.0768 H   0  0  0  0  0  0  0  0  0  0  0  0
    4.8755   -1.0644   -2.6383 H   0  0  0  0  0  0  0  0  0  0  0  0
    4.5353   -3.5457   -2.8779 H   0  0  0  0  0  0  0  0  0  0  0  0
    2.3111   -4.5071   -2.2145 H   0  0  0  0  0  0  0  0  0  0  0  0
    0.7996   -4.8656   -0.2092 H   0  0  0  0  0  0  0  0  0  0  0  0
   -1.4656   -5.8517   -0.0385 H   0  0  0  0  0  0  0  0  0  0  0  0
   -3.4062   -4.7091   -1.0933 H   0  0  0  0  0  0  0  0  0  0  0  0
   -3.0650   -2.5548   -2.2976 H   0  0  0  0  0  0  0  0  0  0  0  0
   -0.7925   -1.5762   -2.4548 H   0  0  0  0  0  0  0  0  0  0  0  0
    2.7243    2.9215   -0.4246 H   0  0  0  0  0  0  0  0  0  0  0  0
    2.2057    3.5357   -1.9991 H   0  0  0  0  0  0  0  0  0  0  0  0
    0.6262    5.2907   -1.3599 H   0  0  0  0  0  0  0  0  0  0  0  0
   -1.4925    5.9281   -0.1780 H   0  0  0  0  0  0  0  0  0  0  0  0
   -2.6042    4.2210    1.2996 H   0  0  0  0  0  0  0  0  0  0  0  0
   -1.5326    1.9603    1.5145 H   0  0  0  0  0  0  0  0  0  0  0  0
    1.4789    0.3292   -3.3409 H   0  0  0  0  0  0  0  0  0  0  0  0
    1.6094    2.0608   -3.6654 H   0  0  0  0  0  0  0  0  0  0  0  0
   -0.4961    2.6114   -4.6556 H   0  0  0  0  0  0  0  0  0  0  0  0
   -3.0036    2.6474   -4.4808 H   0  0  0  0  0  0  0  0  0  0  0  0
   -4.1052    1.5073   -2.5488 H   0  0  0  0  0  0  0  0  0  0  0  0
   -6.0098   -0.8959    2.4792 H   0  0  0  0  0  0  0  0  0  0  0  0
   -6.0845    0.6792    1.6542 H   0  0  0  0  0  0  0  0  0  0  0  0
   -6.4155   -0.7989    0.7498 H   0  0  0  0  0  0  0  0  0  0  0  0
   -3.6865    1.2058    2.4385 H   0  0  0  0  0  0  0  0  0  0  0  0
   -3.7228   -0.3413    3.2990 H   0  0  0  0  0  0  0  0  0  0  0  0
   -2.3904   -0.0013    2.1922 H   0  0  0  0  0  0  0  0  0  0  0  0
   -4.1541   -2.5170    2.0076 H   0  0  0  0  0  0  0  0  0  0  0  0
   -2.8815   -2.1527    0.8386 H   0  0  0  0  0  0  0  0  0  0  0  0
   -4.5289   -2.4680    0.2748 H   0  0  0  0  0  0  0  0  0  0  0  0
   -2.0326   -0.3243   -0.0356 H   0  0  0  0  0  0  0  0  0  0  0  0
   -0.5763   -0.9225    0.9756 N   0  0  0  0  0  0  0  0  0  0  0  0
   -0.3323   -1.9383    1.5866 N   0  3  0  0  0  0  0  0  0  0  0  0
   -0.1302   -2.9110    2.1776 N   0  5  0  0  0  0  0  0  0  0  0  0
  1 87  1  0  0  0  0
  2  3  2  0  0  0  0
  2 47  1  0  0  0  0
  3  4  1  0  0  0  0
  4 50  1  0  0  0  0
  4  5  1  0  0  0  0
  5 51  1  0  0  0  0
  6  5  1  0  0  0  0
  6  7  1  0  0  0  0
  7  8  2  0  0  0  0
  7 12  1  0  0  0  0
  8  9  1  0  0  0  0
  9 53  1  0  0  0  0
  9 10  2  0  0  0  0
 10 54  1  0  0  0  0
 11 10  1  0  0  0  0
 11 55  1  0  0  0  0
 12 11  2  0  0  0  0
 13 57  1  6  0  0  0
 13  2  1  0  0  0  0
 14 13  1  0  0  0  0
 14 48  2  0  0  0  0
 15 14  1  0  0  0  0
 16 15  2  0  0  0  0
 16 17  1  0  0  0  0
 17 18  2  0  0  0  0
 18 48  1  0  0  0  0
 18 19  1  0  0  0  0
 19 20  2  0  0  0  0
 20 21  1  0  0  0  0
 20 61  1  0  0  0  0
 21 62  1  0  0  0  0
 22 63  1  0  0  0  0
 22 21  2  0  0  0  0
 23 22  1  0  0  0  0
 24 23  2  0  0  0  0
 24 19  1  0  0  0  0
 25 33  1  6  0  0  0
 25 13  1  0  0  0  0
 25 26  1  0  0  0  0
 26 27  1  0  0  0  0
 26 66  1  0  0  0  0
 27 32  1  0  0  0  0
 28 27  2  0  0  0  0
 28 29  1  0  0  0  0
 29 30  2  0  0  0  0
 30 31  1  0  0  0  0
 30 70  1  0  0  0  0
 31 71  1  0  0  0  0
 32 31  2  0  0  0  0
 32  1  9  0  0  0  0
 33 34  1  0  0  0  0
 34 39  2  0  0  0  0
 35 36  2  0  0  0  0
 35 34  1  0  0  0  0
 36 37  1  0  0  0  0
 37 76  1  0  0  0  0
 37 38  2  0  0  0  0
 38 40  1  0  0  0  0
 39 38  1  0  0  0  0
 39  1  9  0  0  0  0
 40 41  1  0  0  0  0
 40 86  1  0  0  0  0
 41 43  1  0  0  0  0
 42 41  2  0  0  0  0
 43 44  1  0  0  0  0
 43 45  1  0  0  0  0
 44 78  1  0  0  0  0
 44 77  1  0  0  0  0
 45 80  1  0  0  0  0
 45 81  1  0  0  0  0
 46 43  1  0  0  0  0
 46 83  1  0  0  0  0
 47  6  2  0  0  0  0
 47  1  9  0  0  0  0
 48  1  9  0  0  0  0
 49  3  1  0  0  0  0
 52  8  1  0  0  0  0
 56 12  1  0  0  0  0
 58 15  1  0  0  0  0
 59 16  1  0  0  0  0
 60 17  1  0  0  0  0
 64 23  1  0  0  0  0
 65 24  1  0  0  0  0
 67 26  1  0  0  0  0
 68 28  1  0  0  0  0
 69 29  1  0  0  0  0
 72 33  1  0  0  0  0
 73 33  1  0  0  0  0
 74 35  1  0  0  0  0
 75 36  1  0  0  0  0
 79 44  1  0  0  0  0
 82 45  1  0  0  0  0
 84 46  1  0  0  0  0
 85 46  1  0  0  0  0
 87 88  2  0  0  0  0
 88 89  2  0  0  0  0
M  RAD  2   1   2   5   2
M  CHG  4   1   1   4  -1  88   1  89  -1
M  END
$$$$
