
 OpenBabel02052520063D

 71 80  0  0  0  0  0  0  0  0999 V2000
   -0.0001    0.2129   -0.0137 Fe  0  2  0  0  0  0  0  0  0  0  0  0
   -1.8280    2.1951   -1.5461 C   0  0  0  0  0  0  0  0  0  0  0  0
   -2.5828    3.3451   -1.7463 C   0  0  0  0  0  0  0  0  0  0  0  0
   -2.8932    4.1429   -0.6429 C   0  0  0  0  0  0  0  0  0  0  0  0
   -2.4396    3.7624    0.6216 C   0  0  0  0  0  0  0  0  0  0  0  0
   -1.6936    2.5930    0.7473 C   0  0  0  0  0  0  0  0  0  0  0  0
   -1.2367    2.0718    2.0922 C   0  0  0  0  0  0  0  0  0  0  0  0
    1.2359    2.0724    2.0921 C   0  0  0  0  0  0  0  0  0  0  0  0
    1.6926    2.5936    0.7470 C   0  0  0  0  0  0  0  0  0  0  0  0
    2.4382    3.7633    0.6212 C   0  0  0  0  0  0  0  0  0  0  0  0
    2.8915    4.1440   -0.6434 C   0  0  0  0  0  0  0  0  0  0  0  0
    2.5812    3.3460   -1.7467 C   0  0  0  0  0  0  0  0  0  0  0  0
    1.8268    2.1958   -1.5464 C   0  0  0  0  0  0  0  0  0  0  0  0
    0.0002    0.0497    2.8585 C   0  0  1  0  0  0  0  0  0  0  0  0
   -1.2096   -0.8108    2.5259 C   0  0  0  0  0  0  0  0  0  0  0  0
   -1.8908   -1.5350    3.4913 C   0  0  0  0  0  0  0  0  0  0  0  0
   -2.8786   -2.4323    3.0707 C   0  0  0  0  0  0  0  0  0  0  0  0
   -3.1597   -2.5373    1.7144 C   0  0  0  0  0  0  0  0  0  0  0  0
   -2.4719   -1.7375    0.7869 C   0  0  0  0  0  0  0  0  0  0  0  0
   -2.8518   -1.7642   -0.6432 C   0  0  0  0  0  0  0  0  0  0  0  0
   -2.6797   -2.9306   -1.4009 C   0  0  0  0  0  0  0  0  0  0  0  0
   -3.0464   -2.9441   -2.7466 C   0  0  0  0  0  0  0  0  0  0  0  0
   -3.6117   -1.8074   -3.3313 C   0  0  0  0  0  0  0  0  0  0  0  0
   -3.8166   -0.6555   -2.5672 C   0  0  0  0  0  0  0  0  0  0  0  0
   -3.4344   -0.6310   -1.2268 C   0  0  0  0  0  0  0  0  0  0  0  0
    1.2104   -0.8102    2.5257 C   0  0  0  0  0  0  0  0  0  0  0  0
    1.8922   -1.5339    3.4911 C   0  0  0  0  0  0  0  0  0  0  0  0
    2.8803   -2.4307    3.0705 C   0  0  0  0  0  0  0  0  0  0  0  0
    3.1613   -2.5357    1.7141 C   0  0  0  0  0  0  0  0  0  0  0  0
    2.4729   -1.7364    0.7867 C   0  0  0  0  0  0  0  0  0  0  0  0
    2.8524   -1.7631   -0.6436 C   0  0  0  0  0  0  0  0  0  0  0  0
    3.4343   -0.6298   -1.2275 C   0  0  0  0  0  0  0  0  0  0  0  0
    3.8163   -0.6544   -2.5680 C   0  0  0  0  0  0  0  0  0  0  0  0
    3.6118   -1.8065   -3.3318 C   0  0  0  0  0  0  0  0  0  0  0  0
    3.0471   -2.9434   -2.7467 C   0  0  0  0  0  0  0  0  0  0  0  0
    2.6808   -2.9297   -1.4010 C   0  0  0  0  0  0  0  0  0  0  0  0
   -1.3998    1.8288   -0.3232 N   0  0  0  0  0  0  0  0  0  0  0  0
   -0.0002    1.2536    1.9801 N   0  0  2  0  0  0  0  0  0  0  0  0
    1.3989    1.8294   -0.3234 N   0  0  0  0  0  0  0  0  0  0  0  0
   -1.4840   -0.9060    1.2032 N   0  0  0  0  0  0  0  0  0  0  0  0
    1.4846   -0.9053    1.2030 N   0  0  0  0  0  0  0  0  0  0  0  0
   -1.5601    1.5298   -2.3579 H   0  0  0  0  0  0  0  0  0  0  0  0
   -2.9138    3.6076   -2.7452 H   0  0  0  0  0  0  0  0  0  0  0  0
   -3.4764    5.0506   -0.7640 H   0  0  0  0  0  0  0  0  0  0  0  0
   -2.6628    4.3624    1.4982 H   0  0  0  0  0  0  0  0  0  0  0  0
   -1.0940    2.8957    2.8004 H   0  0  0  0  0  0  0  0  0  0  0  0
   -2.0319    1.4399    2.4986 H   0  0  0  0  0  0  0  0  0  0  0  0
    2.0315    1.4410    2.4985 H   0  0  0  0  0  0  0  0  0  0  0  0
    1.0928    2.8964    2.8001 H   0  0  0  0  0  0  0  0  0  0  0  0
    2.6612    4.3634    1.4978 H   0  0  0  0  0  0  0  0  0  0  0  0
    3.4744    5.0518   -0.7645 H   0  0  0  0  0  0  0  0  0  0  0  0
    2.9120    3.6086   -2.7456 H   0  0  0  0  0  0  0  0  0  0  0  0
    1.5591    1.5303   -2.3582 H   0  0  0  0  0  0  0  0  0  0  0  0
    0.0002    0.3181    3.9218 H   0  0  0  0  0  0  0  0  0  0  0  0
   -1.6477   -1.4154    4.5420 H   0  0  0  0  0  0  0  0  0  0  0  0
   -3.4269   -3.0260    3.7957 H   0  0  0  0  0  0  0  0  0  0  0  0
   -3.9355   -3.2021    1.3514 H   0  0  0  0  0  0  0  0  0  0  0  0
   -2.2410   -3.8135   -0.9445 H   0  0  0  0  0  0  0  0  0  0  0  0
   -2.8979   -3.8432   -3.3365 H   0  0  0  0  0  0  0  0  0  0  0  0
   -3.9080   -1.8262   -4.3756 H   0  0  0  0  0  0  0  0  0  0  0  0
   -4.2881    0.2163   -3.0116 H   0  0  0  0  0  0  0  0  0  0  0  0
   -3.6121    0.2520   -0.6217 H   0  0  0  0  0  0  0  0  0  0  0  0
    1.6491   -1.4143    4.5419 H   0  0  0  0  0  0  0  0  0  0  0  0
    3.4291   -3.0240    3.7954 H   0  0  0  0  0  0  0  0  0  0  0  0
    3.9374   -3.2001    1.3510 H   0  0  0  0  0  0  0  0  0  0  0  0
    3.6118    0.2534   -0.6226 H   0  0  0  0  0  0  0  0  0  0  0  0
    4.2873    0.2176   -3.0127 H   0  0  0  0  0  0  0  0  0  0  0  0
    3.9079   -1.8254   -4.3762 H   0  0  0  0  0  0  0  0  0  0  0  0
    2.8990   -3.8427   -3.3364 H   0  0  0  0  0  0  0  0  0  0  0  0
    2.2426   -3.8129   -0.9443 H   0  0  0  0  0  0  0  0  0  0  0  0
   -0.0001   -0.7248   -1.9942 Cl  0  0  0  0  0  0  0  0  0  0  0  0
  2 37  1  0  0  0  0
  3  2  2  0  0  0  0
  3  4  1  0  0  0  0
  4  5  2  0  0  0  0
  5  6  1  0  0  0  0
  5 45  1  0  0  0  0
  6  7  1  0  0  0  0
  7 47  1  0  0  0  0
  7 46  1  0  0  0  0
  8 48  1  0  0  0  0
  8 49  1  0  0  0  0
  9  8  1  0  0  0  0
 10  9  1  0  0  0  0
 10 50  1  0  0  0  0
 11 10  2  0  0  0  0
 12 13  2  0  0  0  0
 12 11  1  0  0  0  0
 13 39  1  0  0  0  0
 14 54  1  1  0  0  0
 15 14  1  0  0  0  0
 15 16  2  0  0  0  0
 16 55  1  0  0  0  0
 17 16  1  0  0  0  0
 17 56  1  0  0  0  0
 18 17  2  0  0  0  0
 19 40  2  0  0  0  0
 19 18  1  0  0  0  0
 20 19  1  0  0  0  0
 21 58  1  0  0  0  0
 21 20  1  0  0  0  0
 22 21  2  0  0  0  0
 23 22  1  0  0  0  0
 23 24  2  0  0  0  0
 24 25  1  0  0  0  0
 25 20  2  0  0  0  0
 25 62  1  0  0  0  0
 26 14  1  0  0  0  0
 26 27  2  0  0  0  0
 27 63  1  0  0  0  0
 28 27  1  0  0  0  0
 28 64  1  0  0  0  0
 29 28  2  0  0  0  0
 30 41  2  0  0  0  0
 30 29  1  0  0  0  0
 31 30  1  0  0  0  0
 32 31  1  0  0  0  0
 32 66  1  0  0  0  0
 33 32  2  0  0  0  0
 34 35  2  0  0  0  0
 34 33  1  0  0  0  0
 35 36  1  0  0  0  0
 36 70  1  0  0  0  0
 36 31  2  0  0  0  0
 37  6  2  0  0  0  0
 37  1  9  0  0  0  0
 38  8  1  1  0  0  0
 38  7  1  0  0  0  0
 38 14  1  0  0  0  0
 38  1  9  0  0  0  0
 39  9  2  0  0  0  0
 39  1  9  0  0  0  0
 40 15  1  0  0  0  0
 40  1  9  0  0  0  0
 41 26  1  0  0  0  0
 41  1  9  0  0  0  0
 42  2  1  0  0  0  0
 43  3  1  0  0  0  0
 44  4  1  0  0  0  0
 51 11  1  0  0  0  0
 52 12  1  0  0  0  0
 53 13  1  0  0  0  0
 57 18  1  0  0  0  0
 59 22  1  0  0  0  0
 60 23  1  0  0  0  0
 61 24  1  0  0  0  0
 65 29  1  0  0  0  0
 67 33  1  0  0  0  0
 68 34  1  0  0  0  0
 69 35  1  0  0  0  0
 71  1  1  0  0  0  0
M  CHG  1   1   2
M  END
$$$$
