
 OpenBabel02052520063D

 87 96  0  0  0  0  0  0  0  0999 V2000
   -0.7271   -0.1545   -0.0491 Fe  0  0  0  0  0  0  0  0  0  0  0  0
   -3.4845   -1.1784   -0.0939 C   0  0  0  0  0  0  0  0  0  0  0  0
   -4.8385   -1.4414    0.0887 C   0  0  0  0  0  0  0  0  0  0  0  0
   -5.4986   -0.8708    1.1749 C   0  0  0  0  0  0  0  0  0  0  0  0
   -4.7557   -0.0591    2.0421 C   0  0  0  0  0  0  0  0  0  0  0  0
   -3.3921    0.1431    1.8274 C   0  0  0  0  0  0  0  0  0  0  0  0
   -2.6085    0.9308    2.8070 C   0  0  0  0  0  0  0  0  0  0  0  0
   -1.4195    0.4150    3.3383 C   0  0  0  0  0  0  0  0  0  0  0  0
   -0.7123    1.1215    4.3073 C   0  0  0  0  0  0  0  0  0  0  0  0
   -1.1777    2.3605    4.7519 C   0  0  0  0  0  0  0  0  0  0  0  0
   -2.3596    2.8863    4.2245 C   0  0  0  0  0  0  0  0  0  0  0  0
   -3.0747    2.1732    3.2628 C   0  0  0  0  0  0  0  0  0  0  0  0
   -2.7765   -1.5965   -1.3695 C   0  0  1  0  0  0  0  0  0  0  0  0
   -2.7148   -0.3294   -2.2031 C   0  0  0  0  0  0  0  0  0  0  0  0
   -3.7068   -0.0250   -3.1276 C   0  0  0  0  0  0  0  0  0  0  0  0
   -3.6935    1.2255   -3.7449 C   0  0  0  0  0  0  0  0  0  0  0  0
   -2.6435    2.1020   -3.4409 C   0  0  0  0  0  0  0  0  0  0  0  0
   -1.6520    1.7262   -2.5351 C   0  0  0  0  0  0  0  0  0  0  0  0
   -0.4396    2.5580   -2.3718 C   0  0  0  0  0  0  0  0  0  0  0  0
   -0.5172    3.9537   -2.2606 C   0  0  0  0  0  0  0  0  0  0  0  0
    0.6450    4.7227   -2.2008 C   0  0  0  0  0  0  0  0  0  0  0  0
    1.8972    4.1085   -2.2729 C   0  0  0  0  0  0  0  0  0  0  0  0
    1.9809    2.7187   -2.3886 C   0  0  0  0  0  0  0  0  0  0  0  0
    0.8231    1.9480   -2.4224 C   0  0  0  0  0  0  0  0  0  0  0  0
   -1.4037   -2.0819   -1.0785 N   0  0  2  0  0  0  0  0  0  0  0  0
   -1.3440   -3.1916   -0.1170 C   0  0  0  0  0  0  0  0  0  0  0  0
   -0.1380   -3.0870    0.8011 C   0  0  0  0  0  0  0  0  0  0  0  0
    0.5949   -4.2025    1.1980 C   0  0  0  0  0  0  0  0  0  0  0  0
    1.6744   -4.0299    2.0694 C   0  0  0  0  0  0  0  0  0  0  0  0
    1.9767   -2.7462    2.5199 C   0  0  0  0  0  0  0  0  0  0  0  0
    1.1944   -1.6834    2.0714 C   0  0  0  0  0  0  0  0  0  0  0  0
    0.1645   -1.8477    1.2279 N   0  0  0  0  0  0  0  0  0  0  0  0
   -0.6117   -2.3373   -2.2923 C   0  0  0  0  0  0  0  0  0  0  0  0
    0.8794   -2.3582   -2.0220 C   0  0  0  0  0  0  0  0  0  0  0  0
    1.6640   -3.4134   -2.4737 C   0  0  0  0  0  0  0  0  0  0  0  0
    3.0367   -3.3646   -2.2166 C   0  0  0  0  0  0  0  0  0  0  0  0
    3.5728   -2.2994   -1.5123 C   0  0  0  0  0  0  0  0  0  0  0  0
    2.6983   -1.2778   -1.0743 C   0  0  0  0  0  0  0  0  0  0  0  0
    1.3811   -1.3077   -1.3482 N   0  0  0  0  0  0  0  0  0  0  0  0
    3.1156   -0.1797   -0.3161 N   0  0  0  0  0  0  0  0  0  0  0  0
    4.4136    0.0884    0.1089 C   0  0  0  0  0  0  0  0  0  0  0  0
    5.3671   -0.6095   -0.2171 O   0  0  0  0  0  0  0  0  0  0  0  0
    4.6053    1.3050    1.0420 C   0  0  0  0  0  0  0  0  0  0  0  0
    6.1133    1.4552    1.3083 C   0  0  0  0  0  0  0  0  0  0  0  0
    3.8773    1.0432    2.3805 C   0  0  0  0  0  0  0  0  0  0  0  0
    4.0719    2.5969    0.3883 C   0  0  0  0  0  0  0  0  0  0  0  0
   -2.7428   -0.4097    0.7571 N   0  0  0  0  0  0  0  0  0  0  0  0
   -1.7115    0.5316   -1.8692 N   0  0  0  0  0  0  0  0  0  0  0  0
   -5.3632   -2.0734   -0.6228 H   0  0  0  0  0  0  0  0  0  0  0  0
   -6.5522   -1.0612    1.3542 H   0  0  0  0  0  0  0  0  0  0  0  0
   -5.2180    0.3868    2.9164 H   0  0  0  0  0  0  0  0  0  0  0  0
   -1.0596   -0.5401    2.9774 H   0  0  0  0  0  0  0  0  0  0  0  0
    0.2117    0.7106    4.7054 H   0  0  0  0  0  0  0  0  0  0  0  0
   -0.6191    2.9178    5.4991 H   0  0  0  0  0  0  0  0  0  0  0  0
   -2.7218    3.8555    4.5573 H   0  0  0  0  0  0  0  0  0  0  0  0
   -3.9877    2.5877    2.8432 H   0  0  0  0  0  0  0  0  0  0  0  0
   -3.3780   -2.3546   -1.8944 H   0  0  0  0  0  0  0  0  0  0  0  0
   -4.4805   -0.7558   -3.3462 H   0  0  0  0  0  0  0  0  0  0  0  0
   -4.4522    1.4977   -4.4719 H   0  0  0  0  0  0  0  0  0  0  0  0
   -2.5508    3.0528   -3.9551 H   0  0  0  0  0  0  0  0  0  0  0  0
   -1.4909    4.4323   -2.1970 H   0  0  0  0  0  0  0  0  0  0  0  0
    0.5721    5.8019   -2.0946 H   0  0  0  0  0  0  0  0  0  0  0  0
    2.8027    4.7079   -2.2286 H   0  0  0  0  0  0  0  0  0  0  0  0
    2.9500    2.2308   -2.4339 H   0  0  0  0  0  0  0  0  0  0  0  0
    0.8860    0.8669   -2.4805 H   0  0  0  0  0  0  0  0  0  0  0  0
   -2.2429   -3.1441    0.5055 H   0  0  0  0  0  0  0  0  0  0  0  0
   -1.3506   -4.1673   -0.6265 H   0  0  0  0  0  0  0  0  0  0  0  0
    0.3339   -5.1862    0.8187 H   0  0  0  0  0  0  0  0  0  0  0  0
    2.2709   -4.8829    2.3800 H   0  0  0  0  0  0  0  0  0  0  0  0
    2.8098   -2.5610    3.1903 H   0  0  0  0  0  0  0  0  0  0  0  0
    1.3859   -0.6570    2.3638 H   0  0  0  0  0  0  0  0  0  0  0  0
   -0.8235   -1.5321   -2.9989 H   0  0  0  0  0  0  0  0  0  0  0  0
   -0.9169   -3.2846   -2.7663 H   0  0  0  0  0  0  0  0  0  0  0  0
    1.2153   -4.2445   -3.0090 H   0  0  0  0  0  0  0  0  0  0  0  0
    3.6889   -4.1646   -2.5567 H   0  0  0  0  0  0  0  0  0  0  0  0
    4.6247   -2.2312   -1.2855 H   0  0  0  0  0  0  0  0  0  0  0  0
    6.2813    2.3146    1.9675 H   0  0  0  0  0  0  0  0  0  0  0  0
    6.5247    0.5610    1.7851 H   0  0  0  0  0  0  0  0  0  0  0  0
    6.6660    1.6154    0.3778 H   0  0  0  0  0  0  0  0  0  0  0  0
    4.1956    0.0885    2.8186 H   0  0  0  0  0  0  0  0  0  0  0  0
    4.1291    1.8389    3.0914 H   0  0  0  0  0  0  0  0  0  0  0  0
    2.7924    1.0441    2.2585 H   0  0  0  0  0  0  0  0  0  0  0  0
    4.2711    3.4459    1.0530 H   0  0  0  0  0  0  0  0  0  0  0  0
    2.9956    2.5672    0.2090 H   0  0  0  0  0  0  0  0  0  0  0  0
    4.5823    2.7897   -0.5630 H   0  0  0  0  0  0  0  0  0  0  0  0
    2.3522    0.4345   -0.0063 H   0  0  0  0  0  0  0  0  0  0  0  0
    0.5914    1.5593    0.9314 Cl  0  0  0  0  0  0  0  0  0  0  0  0
  1 87  1  0  0  0  0
  2  3  2  0  0  0  0
  2 47  1  0  0  0  0
  3  4  1  0  0  0  0
  4 50  1  0  0  0  0
  4  5  2  0  0  0  0
  5 51  1  0  0  0  0
  6  5  1  0  0  0  0
  6  7  1  0  0  0  0
  7 12  1  0  0  0  0
  7  8  2  0  0  0  0
  8  9  1  0  0  0  0
  9 53  1  0  0  0  0
  9 10  2  0  0  0  0
 10 54  1  0  0  0  0
 11 55  1  0  0  0  0
 11 10  1  0  0  0  0
 12 11  2  0  0  0  0
 13 57  1  6  0  0  0
 13 25  1  0  0  0  0
 13  2  1  0  0  0  0
 14 48  2  0  0  0  0
 14 13  1  0  0  0  0
 15 14  1  0  0  0  0
 16 17  1  0  0  0  0
 16 15  2  0  0  0  0
 17 18  2  0  0  0  0
 18 19  1  0  0  0  0
 18 48  1  0  0  0  0
 19 20  2  0  0  0  0
 20 21  1  0  0  0  0
 20 61  1  0  0  0  0
 21 62  1  0  0  0  0
 22 63  1  0  0  0  0
 22 21  2  0  0  0  0
 23 22  1  0  0  0  0
 24 23  2  0  0  0  0
 24 19  1  0  0  0  0
 25 33  1  6  0  0  0
 25 26  1  0  0  0  0
 25  1  9  0  0  0  0
 26 66  1  0  0  0  0
 26 27  1  0  0  0  0
 27 28  2  0  0  0  0
 27 32  1  0  0  0  0
 28 29  1  0  0  0  0
 29 69  1  0  0  0  0
 29 30  2  0  0  0  0
 30 70  1  0  0  0  0
 31 71  1  0  0  0  0
 31 30  1  0  0  0  0
 32 31  2  0  0  0  0
 32  1  9  0  0  0  0
 33 34  1  0  0  0  0
 34 39  2  0  0  0  0
 35 36  2  0  0  0  0
 35 34  1  0  0  0  0
 36 37  1  0  0  0  0
 37 76  1  0  0  0  0
 37 38  2  0  0  0  0
 38 40  1  0  0  0  0
 39 38  1  0  0  0  0
 39  1  9  0  0  0  0
 40 86  1  0  0  0  0
 40 41  1  0  0  0  0
 41 43  1  0  0  0  0
 42 41  2  0  0  0  0
 43 44  1  0  0  0  0
 43 45  1  0  0  0  0
 44 78  1  0  0  0  0
 44 77  1  0  0  0  0
 45 80  1  0  0  0  0
 45 81  1  0  0  0  0
 46 43  1  0  0  0  0
 46 83  1  0  0  0  0
 47  6  2  0  0  0  0
 47  1  9  0  0  0  0
 48  1  9  0  0  0  0
 49  3  1  0  0  0  0
 52  8  1  0  0  0  0
 56 12  1  0  0  0  0
 58 15  1  0  0  0  0
 59 16  1  0  0  0  0
 60 17  1  0  0  0  0
 64 23  1  0  0  0  0
 65 24  1  0  0  0  0
 67 26  1  0  0  0  0
 68 28  1  0  0  0  0
 72 33  1  0  0  0  0
 73 33  1  0  0  0  0
 74 35  1  0  0  0  0
 75 36  1  0  0  0  0
 79 44  1  0  0  0  0
 82 45  1  0  0  0  0
 84 46  1  0  0  0  0
 85 46  1  0  0  0  0
M  END
$$$$
