
 OpenBabel02052520063D

 87 96  0  0  0  0  0  0  0  0999 V2000
    0.7424   -0.0145    0.2446 Fe  0  0  0  0  0  0  0  0  0  0  0  0
    3.6071   -0.3838    0.8740 C   0  0  0  0  0  0  0  0  0  0  0  0
    4.9845   -0.5863    0.8562 C   0  0  0  0  0  0  0  0  0  0  0  0
    5.5655   -1.1805   -0.2616 C   0  0  0  0  0  0  0  0  0  0  0  0
    4.7231   -1.5787   -1.3095 C   0  0  0  0  0  0  0  0  0  0  0  0
    3.3454   -1.3917   -1.2111 C   0  0  0  0  0  0  0  0  0  0  0  0
    2.4532   -1.9399   -2.2615 C   0  0  0  0  0  0  0  0  0  0  0  0
    1.4801   -2.8873   -1.9186 C   0  0  0  0  0  0  0  0  0  0  0  0
    0.6655   -3.4495   -2.8977 C   0  0  0  0  0  0  0  0  0  0  0  0
    0.8102   -3.0657   -4.2329 C   0  0  0  0  0  0  0  0  0  0  0  0
    1.7826   -2.1274   -4.5830 C   0  0  0  0  0  0  0  0  0  0  0  0
    2.6069   -1.5731   -3.6036 C   0  0  0  0  0  0  0  0  0  0  0  0
    2.9501    0.4351    1.9701 C   0  0  1  0  0  0  0  0  0  0  0  0
    2.7616    1.8145    1.3666 C   0  0  0  0  0  0  0  0  0  0  0  0
    3.7186    2.8092    1.5344 C   0  0  0  0  0  0  0  0  0  0  0  0
    3.5763    4.0068    0.8362 C   0  0  0  0  0  0  0  0  0  0  0  0
    2.4368    4.1749    0.0389 C   0  0  0  0  0  0  0  0  0  0  0  0
    1.4866    3.1579   -0.0549 C   0  0  0  0  0  0  0  0  0  0  0  0
    0.1919    3.4239   -0.7205 C   0  0  0  0  0  0  0  0  0  0  0  0
    0.1274    4.0709   -1.9616 C   0  0  0  0  0  0  0  0  0  0  0  0
   -1.1069    4.3888   -2.5278 C   0  0  0  0  0  0  0  0  0  0  0  0
   -2.2891    4.0839   -1.8506 C   0  0  0  0  0  0  0  0  0  0  0  0
   -2.2311    3.4466   -0.6084 C   0  0  0  0  0  0  0  0  0  0  0  0
   -1.0011    3.1086   -0.0529 C   0  0  0  0  0  0  0  0  0  0  0  0
    1.6275   -0.1374    2.3314 N   0  0  2  0  0  0  0  0  0  0  0  0
    1.6555   -1.5499    2.7412 C   0  0  0  0  0  0  0  0  0  0  0  0
    0.4591   -2.3241    2.2109 C   0  0  0  0  0  0  0  0  0  0  0  0
   -0.1425   -3.3512    2.9304 C   0  0  0  0  0  0  0  0  0  0  0  0
   -1.2101   -4.0500    2.3548 C   0  0  0  0  0  0  0  0  0  0  0  0
   -1.6295   -3.6980    1.0723 C   0  0  0  0  0  0  0  0  0  0  0  0
   -0.9761   -2.6560    0.4186 C   0  0  0  0  0  0  0  0  0  0  0  0
    0.0405   -1.9776    0.9784 N   0  0  0  0  0  0  0  0  0  0  0  0
    0.8529    0.7038    3.2571 C   0  0  0  0  0  0  0  0  0  0  0  0
   -0.6331    0.4074    3.2029 C   0  0  0  0  0  0  0  0  0  0  0  0
   -1.3465    0.1851    4.3744 C   0  0  0  0  0  0  0  0  0  0  0  0
   -2.7190   -0.0558    4.2699 C   0  0  0  0  0  0  0  0  0  0  0  0
   -3.3228   -0.0873    3.0246 C   0  0  0  0  0  0  0  0  0  0  0  0
   -2.5193    0.1326    1.8817 C   0  0  0  0  0  0  0  0  0  0  0  0
   -1.2017    0.3918    1.9816 N   0  0  0  0  0  0  0  0  0  0  0  0
   -3.0173    0.0812    0.5752 N   0  0  0  0  0  0  0  0  0  0  0  0
   -4.3362   -0.1748    0.2012 C   0  0  0  0  0  0  0  0  0  0  0  0
   -5.2316   -0.3167    1.0254 O   0  0  0  0  0  0  0  0  0  0  0  0
   -4.6248   -0.2999   -1.3101 C   0  0  0  0  0  0  0  0  0  0  0  0
   -6.1387   -0.5170   -1.4791 C   0  0  0  0  0  0  0  0  0  0  0  0
   -3.8712   -1.5257   -1.8747 C   0  0  0  0  0  0  0  0  0  0  0  0
   -4.2085    0.9825   -2.0600 C   0  0  0  0  0  0  0  0  0  0  0  0
    2.7784   -0.7661   -0.1382 N   0  0  0  0  0  0  0  0  0  0  0  0
    1.6733    1.9491    0.5573 N   0  0  0  0  0  0  0  0  0  0  0  0
    5.5865   -0.2654    1.7022 H   0  0  0  0  0  0  0  0  0  0  0  0
    6.6361   -1.3538   -0.3105 H   0  0  0  0  0  0  0  0  0  0  0  0
    5.1209   -2.0763   -2.1879 H   0  0  0  0  0  0  0  0  0  0  0  0
    1.3695   -3.1732   -0.8793 H   0  0  0  0  0  0  0  0  0  0  0  0
   -0.0873   -4.1821   -2.6178 H   0  0  0  0  0  0  0  0  0  0  0  0
    0.1660   -3.4932   -4.9966 H   0  0  0  0  0  0  0  0  0  0  0  0
    1.8936   -1.8185   -5.6189 H   0  0  0  0  0  0  0  0  0  0  0  0
    3.3536   -0.8304   -3.8712 H   0  0  0  0  0  0  0  0  0  0  0  0
    3.6260    0.5015    2.8371 H   0  0  0  0  0  0  0  0  0  0  0  0
    4.5647    2.6352    2.1934 H   0  0  0  0  0  0  0  0  0  0  0  0
    4.3046    4.8050    0.9408 H   0  0  0  0  0  0  0  0  0  0  0  0
    2.2448    5.1183   -0.4610 H   0  0  0  0  0  0  0  0  0  0  0  0
    1.0466    4.2963   -2.4955 H   0  0  0  0  0  0  0  0  0  0  0  0
   -1.1450    4.8694   -3.5017 H   0  0  0  0  0  0  0  0  0  0  0  0
   -3.2507    4.3309   -2.2925 H   0  0  0  0  0  0  0  0  0  0  0  0
   -3.1461    3.1955   -0.0795 H   0  0  0  0  0  0  0  0  0  0  0  0
   -0.9526    2.5880    0.8968 H   0  0  0  0  0  0  0  0  0  0  0  0
    2.5581   -2.0044    2.3217 H   0  0  0  0  0  0  0  0  0  0  0  0
    1.7188   -1.6497    3.8351 H   0  0  0  0  0  0  0  0  0  0  0  0
    0.2106   -3.5925    3.9289 H   0  0  0  0  0  0  0  0  0  0  0  0
   -1.7050   -4.8461    2.9031 H   0  0  0  0  0  0  0  0  0  0  0  0
   -2.4558   -4.2069    0.5865 H   0  0  0  0  0  0  0  0  0  0  0  0
   -1.2509   -2.3275   -0.5775 H   0  0  0  0  0  0  0  0  0  0  0  0
    1.0089    1.7453    2.9680 H   0  0  0  0  0  0  0  0  0  0  0  0
    1.2168    0.5886    4.2907 H   0  0  0  0  0  0  0  0  0  0  0  0
   -0.8438    0.2004    5.3363 H   0  0  0  0  0  0  0  0  0  0  0  0
   -3.3172   -0.2296    5.1603 H   0  0  0  0  0  0  0  0  0  0  0  0
   -4.3766   -0.2789    2.9026 H   0  0  0  0  0  0  0  0  0  0  0  0
   -6.3744   -0.6062   -2.5456 H   0  0  0  0  0  0  0  0  0  0  0  0
   -6.4707   -1.4258   -0.9689 H   0  0  0  0  0  0  0  0  0  0  0  0
   -6.7083    0.3200   -1.0642 H   0  0  0  0  0  0  0  0  0  0  0  0
   -4.1115   -2.4300   -1.3011 H   0  0  0  0  0  0  0  0  0  0  0  0
   -4.1802   -1.6941   -2.9130 H   0  0  0  0  0  0  0  0  0  0  0  0
   -2.7900   -1.3736   -1.8790 H   0  0  0  0  0  0  0  0  0  0  0  0
   -4.4700    0.8813   -3.1199 H   0  0  0  0  0  0  0  0  0  0  0  0
   -3.1356    1.1763   -2.0072 H   0  0  0  0  0  0  0  0  0  0  0  0
   -4.7432    1.8539   -1.6636 H   0  0  0  0  0  0  0  0  0  0  0  0
   -2.3110    0.2059   -0.1564 H   0  0  0  0  0  0  0  0  0  0  0  0
   -0.4904    0.1542   -1.9907 Br  0  0  0  0  0  0  0  0  0  0  0  0
  2 13  1  0  0  0  0
  3  2  1  0  0  0  0
  3 49  1  0  0  0  0
  4  3  2  0  0  0  0
  5  6  2  0  0  0  0
  5  4  1  0  0  0  0
  6 47  1  0  0  0  0
  7  8  1  0  0  0  0
  7  6  1  0  0  0  0
  8 52  1  0  0  0  0
  9 53  1  0  0  0  0
  9  8  2  0  0  0  0
 10  9  1  0  0  0  0
 11 10  2  0  0  0  0
 11 12  1  0  0  0  0
 12  7  2  0  0  0  0
 13 25  1  0  0  0  0
 13 57  1  1  0  0  0
 14 15  1  0  0  0  0
 14 13  1  0  0  0  0
 15 58  1  0  0  0  0
 16 59  1  0  0  0  0
 16 15  2  0  0  0  0
 17 16  1  0  0  0  0
 18 17  2  0  0  0  0
 18 48  1  0  0  0  0
 19 18  1  0  0  0  0
 19 24  2  0  0  0  0
 20 19  1  0  0  0  0
 21 20  2  0  0  0  0
 21 22  1  0  0  0  0
 22 23  2  0  0  0  0
 23 64  1  0  0  0  0
 23 24  1  0  0  0  0
 24 65  1  0  0  0  0
 25 26  1  1  0  0  0
 25 33  1  0  0  0  0
 25  1  9  0  0  0  0
 26 67  1  0  0  0  0
 27 26  1  0  0  0  0
 27 28  2  0  0  0  0
 28 68  1  0  0  0  0
 29 69  1  0  0  0  0
 29 28  1  0  0  0  0
 30 29  2  0  0  0  0
 31 32  2  0  0  0  0
 31 30  1  0  0  0  0
 32 27  1  0  0  0  0
 32  1  9  0  0  0  0
 33 73  1  0  0  0  0
 34 33  1  0  0  0  0
 34 35  2  0  0  0  0
 35 74  1  0  0  0  0
 36 35  1  0  0  0  0
 36 75  1  0  0  0  0
 37 36  2  0  0  0  0
 38 39  2  0  0  0  0
 38 37  1  0  0  0  0
 39 34  1  0  0  0  0
 39  1  9  0  0  0  0
 40 38  1  0  0  0  0
 41 40  1  0  0  0  0
 41 42  2  0  0  0  0
 43 41  1  0  0  0  0
 44 43  1  0  0  0  0
 44 79  1  0  0  0  0
 44 78  1  0  0  0  0
 45 43  1  0  0  0  0
 45 80  1  0  0  0  0
 46 84  1  0  0  0  0
 46 85  1  0  0  0  0
 46 43  1  0  0  0  0
 47  2  2  0  0  0  0
 47  1  9  0  0  0  0
 48 14  2  0  0  0  0
 48  1  9  0  0  0  0
 50  4  1  0  0  0  0
 51  5  1  0  0  0  0
 54 10  1  0  0  0  0
 55 11  1  0  0  0  0
 56 12  1  0  0  0  0
 60 17  1  0  0  0  0
 61 20  1  0  0  0  0
 62 21  1  0  0  0  0
 63 22  1  0  0  0  0
 66 26  1  0  0  0  0
 70 30  1  0  0  0  0
 71 31  1  0  0  0  0
 72 33  1  0  0  0  0
 76 37  1  0  0  0  0
 77 44  1  0  0  0  0
 81 45  1  0  0  0  0
 82 45  1  0  0  0  0
 83 46  1  0  0  0  0
 86 40  1  0  0  0  0
 87  1  1  0  0  0  0
M  END
$$$$
