
 OpenBabel02052520063D

 71 80  0  0  0  0  0  0  0  0999 V2000
    0.0435   -0.0447   -0.1582 Fe  0  2  0  0  0  0  0  0  0  0  0  0
    2.0241   -0.0215   -2.4725 C   0  0  0  0  0  0  0  0  0  0  0  0
    2.8878   -0.5256   -3.4374 C   0  0  0  0  0  0  0  0  0  0  0  0
    3.1959   -1.8878   -3.4149 C   0  0  0  0  0  0  0  0  0  0  0  0
    2.6437   -2.6985   -2.4209 C   0  0  0  0  0  0  0  0  0  0  0  0
    1.7994   -2.1230   -1.4748 C   0  0  0  0  0  0  0  0  0  0  0  0
    1.2548   -2.9109   -0.3013 C   0  0  0  0  0  0  0  0  0  0  0  0
   -1.2217   -2.8788   -0.2004 C   0  0  0  0  0  0  0  0  0  0  0  0
   -1.8495   -2.0731   -1.3209 C   0  0  0  0  0  0  0  0  0  0  0  0
   -2.7954   -2.6234   -2.1820 C   0  0  0  0  0  0  0  0  0  0  0  0
   -3.4153   -1.7967   -3.1218 C   0  0  0  0  0  0  0  0  0  0  0  0
   -3.0732   -0.4438   -3.1772 C   0  0  0  0  0  0  0  0  0  0  0  0
   -2.1080    0.0352   -2.2999 C   0  0  0  0  0  0  0  0  0  0  0  0
    0.1155   -2.1492    1.7959 C   0  0  1  0  0  0  0  0  0  0  0  0
    1.3793   -1.3794    2.1378 C   0  0  0  0  0  0  0  0  0  0  0  0
    2.3004   -1.8185    3.0756 C   0  0  0  0  0  0  0  0  0  0  0  0
    3.4697   -1.0692    3.2573 C   0  0  0  0  0  0  0  0  0  0  0  0
    3.6641    0.0763    2.4965 C   0  0  0  0  0  0  0  0  0  0  0  0
    2.6824    0.4868    1.5787 C   0  0  0  0  0  0  0  0  0  0  0  0
    2.8569    1.7184    0.7807 C   0  0  0  0  0  0  0  0  0  0  0  0
    1.9198    2.7566    0.8691 C   0  0  0  0  0  0  0  0  0  0  0  0
    2.0958    3.9232    0.1284 C   0  0  0  0  0  0  0  0  0  0  0  0
    3.2042    4.0555   -0.7120 C   0  0  0  0  0  0  0  0  0  0  0  0
    4.1478    3.0265   -0.7975 C   0  0  0  0  0  0  0  0  0  0  0  0
    3.9841    1.8646   -0.0441 C   0  0  0  0  0  0  0  0  0  0  0  0
   -1.1065   -1.3699    2.2533 C   0  0  0  0  0  0  0  0  0  0  0  0
   -1.8969   -1.7796    3.3154 C   0  0  0  0  0  0  0  0  0  0  0  0
   -3.0503   -1.0412    3.6065 C   0  0  0  0  0  0  0  0  0  0  0  0
   -3.3746    0.0462    2.8070 C   0  0  0  0  0  0  0  0  0  0  0  0
   -2.5314    0.4193    1.7452 C   0  0  0  0  0  0  0  0  0  0  0  0
   -2.8974    1.5391    0.8527 C   0  0  0  0  0  0  0  0  0  0  0  0
   -4.1683    1.5447    0.2501 C   0  0  0  0  0  0  0  0  0  0  0  0
   -4.5254    2.5760   -0.6163 C   0  0  0  0  0  0  0  0  0  0  0  0
   -3.6275    3.6181   -0.8722 C   0  0  0  0  0  0  0  0  0  0  0  0
   -2.3731    3.6277   -0.2575 C   0  0  0  0  0  0  0  0  0  0  0  0
   -2.0095    2.5928    0.6025 C   0  0  0  0  0  0  0  0  0  0  0  0
    1.4954   -0.8125   -1.5176 N   0  0  0  0  0  0  0  0  0  0  0  0
    0.0475   -2.2811    0.2987 N   0  0  2  0  0  0  0  0  0  0  0  0
   -1.5142   -0.7718   -1.3988 N   0  0  0  0  0  0  0  0  0  0  0  0
    1.5555   -0.2481    1.4158 N   0  0  0  0  0  0  0  0  0  0  0  0
   -1.3939   -0.2786    1.5047 N   0  0  0  0  0  0  0  0  0  0  0  0
    1.7270    1.0193   -2.4319 H   0  0  0  0  0  0  0  0  0  0  0  0
    3.2998    0.1351   -4.1923 H   0  0  0  0  0  0  0  0  0  0  0  0
    3.8569   -2.3158   -4.1623 H   0  0  0  0  0  0  0  0  0  0  0  0
    2.8692   -3.7595   -2.3769 H   0  0  0  0  0  0  0  0  0  0  0  0
    1.0456   -3.9440   -0.5978 H   0  0  0  0  0  0  0  0  0  0  0  0
    2.0389   -2.9619    0.4607 H   0  0  0  0  0  0  0  0  0  0  0  0
   -1.9385   -2.9200    0.6256 H   0  0  0  0  0  0  0  0  0  0  0  0
   -1.0607   -3.9135   -0.5202 H   0  0  0  0  0  0  0  0  0  0  0  0
   -3.0470   -3.6773   -2.1143 H   0  0  0  0  0  0  0  0  0  0  0  0
   -4.1564   -2.2059   -3.8017 H   0  0  0  0  0  0  0  0  0  0  0  0
   -3.5381    0.2290   -3.8893 H   0  0  0  0  0  0  0  0  0  0  0  0
   -1.7832    1.0688   -2.2862 H   0  0  0  0  0  0  0  0  0  0  0  0
    0.1332   -3.1314    2.2822 H   0  0  0  0  0  0  0  0  0  0  0  0
    2.1230   -2.7302    3.6365 H   0  0  0  0  0  0  0  0  0  0  0  0
    4.2152   -1.3831    3.9814 H   0  0  0  0  0  0  0  0  0  0  0  0
    4.5539    0.6846    2.6146 H   0  0  0  0  0  0  0  0  0  0  0  0
    1.0737    2.6547    1.5418 H   0  0  0  0  0  0  0  0  0  0  0  0
    1.3767    4.7321    0.2143 H   0  0  0  0  0  0  0  0  0  0  0  0
    3.3428    4.9659   -1.2872 H   0  0  0  0  0  0  0  0  0  0  0  0
    5.0164    3.1358   -1.4396 H   0  0  0  0  0  0  0  0  0  0  0  0
    4.7191    1.0661   -0.1031 H   0  0  0  0  0  0  0  0  0  0  0  0
   -1.6329   -2.6616    3.8897 H   0  0  0  0  0  0  0  0  0  0  0  0
   -3.6900   -1.3261    4.4361 H   0  0  0  0  0  0  0  0  0  0  0  0
   -4.2669    0.6329    2.9946 H   0  0  0  0  0  0  0  0  0  0  0  0
   -4.8636    0.7327    0.4457 H   0  0  0  0  0  0  0  0  0  0  0  0
   -5.5050    2.5726   -1.0842 H   0  0  0  0  0  0  0  0  0  0  0  0
   -3.9121    4.4276   -1.5377 H   0  0  0  0  0  0  0  0  0  0  0  0
   -1.6814    4.4443   -0.4395 H   0  0  0  0  0  0  0  0  0  0  0  0
   -1.0415    2.6063    1.0883 H   0  0  0  0  0  0  0  0  0  0  0  0
    0.0725    1.5365   -0.9475 F   0  0  0  0  0  0  0  0  0  0  0  0
  2 42  1  0  0  0  0
  2 37  1  0  0  0  0
  3  4  1  0  0  0  0
  3  2  2  0  0  0  0
  4  5  2  0  0  0  0
  5 45  1  0  0  0  0
  5  6  1  0  0  0  0
  6  7  1  0  0  0  0
  7 47  1  0  0  0  0
  8 38  1  0  0  0  0
  8 48  1  0  0  0  0
  9  8  1  0  0  0  0
 10 50  1  0  0  0  0
 10  9  1  0  0  0  0
 11 10  2  0  0  0  0
 12 11  1  0  0  0  0
 12 13  2  0  0  0  0
 13 53  1  0  0  0  0
 13 39  1  0  0  0  0
 14 15  1  0  0  0  0
 14 26  1  0  0  0  0
 14 54  1  1  0  0  0
 15 16  2  0  0  0  0
 16 17  1  0  0  0  0
 16 55  1  0  0  0  0
 17 56  1  0  0  0  0
 18 57  1  0  0  0  0
 18 17  2  0  0  0  0
 19 18  1  0  0  0  0
 20 21  1  0  0  0  0
 20 19  1  0  0  0  0
 21 58  1  0  0  0  0
 22 59  1  0  0  0  0
 22 21  2  0  0  0  0
 23 22  1  0  0  0  0
 24 23  2  0  0  0  0
 24 25  1  0  0  0  0
 25 20  2  0  0  0  0
 26 27  2  0  0  0  0
 27 28  1  0  0  0  0
 27 63  1  0  0  0  0
 28 64  1  0  0  0  0
 29 65  1  0  0  0  0
 29 28  2  0  0  0  0
 30 29  1  0  0  0  0
 31 30  1  0  0  0  0
 32 66  1  0  0  0  0
 32 31  1  0  0  0  0
 33 32  2  0  0  0  0
 34 33  1  0  0  0  0
 34 35  2  0  0  0  0
 35 36  1  0  0  0  0
 36 31  2  0  0  0  0
 36 70  1  0  0  0  0
 37  6  2  0  0  0  0
 37  1  9  0  0  0  0
 38  7  1  6  0  0  0
 38 14  1  0  0  0  0
 38  1  9  0  0  0  0
 39  9  2  0  0  0  0
 39  1  9  0  0  0  0
 40 19  2  0  0  0  0
 40 15  1  0  0  0  0
 40  1  9  0  0  0  0
 41 30  2  0  0  0  0
 41 26  1  0  0  0  0
 41  1  9  0  0  0  0
 43  3  1  0  0  0  0
 44  4  1  0  0  0  0
 46  7  1  0  0  0  0
 49  8  1  0  0  0  0
 51 11  1  0  0  0  0
 52 12  1  0  0  0  0
 60 23  1  0  0  0  0
 61 24  1  0  0  0  0
 62 25  1  0  0  0  0
 67 33  1  0  0  0  0
 68 34  1  0  0  0  0
 69 35  1  0  0  0  0
 71  1  1  0  0  0  0
M  CHG  1   1   2
M  END
$$$$
