
 OpenBabel02052520063D

 71 80  0  0  0  0  0  0  0  0999 V2000
    0.1533   -0.3806   -0.1664 Fe  0  2  0  0  0  0  0  0  0  0  0  0
    2.1100   -1.6599   -2.2702 C   0  0  0  0  0  0  0  0  0  0  0  0
    2.9697   -2.6136   -2.8039 C   0  0  0  0  0  0  0  0  0  0  0  0
    3.2479   -3.7602   -2.0583 C   0  0  0  0  0  0  0  0  0  0  0  0
    2.6503   -3.9152   -0.8058 C   0  0  0  0  0  0  0  0  0  0  0  0
    1.8033   -2.9169   -0.3340 C   0  0  0  0  0  0  0  0  0  0  0  0
    1.1606   -2.9779    1.0322 C   0  0  0  0  0  0  0  0  0  0  0  0
   -1.1963   -3.1073    0.3817 C   0  0  0  0  0  0  0  0  0  0  0  0
   -2.0069   -2.4051   -0.6880 C   0  0  0  0  0  0  0  0  0  0  0  0
   -3.2053   -2.9527   -1.1395 C   0  0  0  0  0  0  0  0  0  0  0  0
   -3.8874   -2.3280   -2.1839 C   0  0  0  0  0  0  0  0  0  0  0  0
   -3.3521   -1.1667   -2.7428 C   0  0  0  0  0  0  0  0  0  0  0  0
   -2.1606   -0.6674   -2.2309 C   0  0  0  0  0  0  0  0  0  0  0  0
   -0.5285   -1.6579    2.3050 C   0  0  1  0  0  0  0  0  0  0  0  0
    0.5493   -0.6775    2.7412 C   0  0  0  0  0  0  0  0  0  0  0  0
    0.7913   -0.4011    4.0765 C   0  0  0  0  0  0  0  0  0  0  0  0
    1.7031    0.6146    4.3885 C   0  0  0  0  0  0  0  0  0  0  0  0
    2.3683    1.2671    3.3590 C   0  0  0  0  0  0  0  0  0  0  0  0
    2.1235    0.9067    2.0234 C   0  0  0  0  0  0  0  0  0  0  0  0
    2.9251    1.4758    0.9256 C   0  0  0  0  0  0  0  0  0  0  0  0
    3.0891    2.8634    0.8006 C   0  0  0  0  0  0  0  0  0  0  0  0
    3.8494    3.3816   -0.2463 C   0  0  0  0  0  0  0  0  0  0  0  0
    4.4730    2.5205   -1.1550 C   0  0  0  0  0  0  0  0  0  0  0  0
    4.3371    1.1368   -1.0156 C   0  0  0  0  0  0  0  0  0  0  0  0
    3.5616    0.6152    0.0171 C   0  0  0  0  0  0  0  0  0  0  0  0
   -1.8099   -0.8695    2.0951 C   0  0  0  0  0  0  0  0  0  0  0  0
   -2.9893   -1.1513    2.7651 C   0  0  0  0  0  0  0  0  0  0  0  0
   -4.1132   -0.3666    2.4754 C   0  0  0  0  0  0  0  0  0  0  0  0
   -3.9895    0.6742    1.5668 C   0  0  0  0  0  0  0  0  0  0  0  0
   -2.7524    0.9251    0.9411 C   0  0  0  0  0  0  0  0  0  0  0  0
   -2.5897    2.0957    0.0584 C   0  0  0  0  0  0  0  0  0  0  0  0
   -3.5175    2.3541   -0.9640 C   0  0  0  0  0  0  0  0  0  0  0  0
   -3.3806    3.4894   -1.7619 C   0  0  0  0  0  0  0  0  0  0  0  0
   -2.3363    4.3885   -1.5252 C   0  0  0  0  0  0  0  0  0  0  0  0
   -1.4241    4.1475   -0.4942 C   0  0  0  0  0  0  0  0  0  0  0  0
   -1.5434    3.0011    0.2903 C   0  0  0  0  0  0  0  0  0  0  0  0
    1.5398   -1.8054   -1.0575 N   0  0  0  0  0  0  0  0  0  0  0  0
   -0.1388   -2.2603    0.9973 N   0  0  2  0  0  0  0  0  0  0  0  0
   -1.4991   -1.2778   -1.2257 N   0  0  0  0  0  0  0  0  0  0  0  0
    1.1797   -0.0269    1.7324 N   0  0  0  0  0  0  0  0  0  0  0  0
   -1.6894    0.1269    1.1897 N   0  0  0  0  0  0  0  0  0  0  0  0
    1.8657   -0.7501   -2.8037 H   0  0  0  0  0  0  0  0  0  0  0  0
    3.4058   -2.4568   -3.7845 H   0  0  0  0  0  0  0  0  0  0  0  0
    3.9128   -4.5255   -2.4465 H   0  0  0  0  0  0  0  0  0  0  0  0
    2.8386   -4.7974   -0.2020 H   0  0  0  0  0  0  0  0  0  0  0  0
    1.0332   -4.0136    1.3692 H   0  0  0  0  0  0  0  0  0  0  0  0
    1.8152   -2.4832    1.7534 H   0  0  0  0  0  0  0  0  0  0  0  0
   -1.8583   -3.5154    1.1539 H   0  0  0  0  0  0  0  0  0  0  0  0
   -0.7039   -3.9635   -0.0907 H   0  0  0  0  0  0  0  0  0  0  0  0
   -3.5934   -3.8583   -0.6833 H   0  0  0  0  0  0  0  0  0  0  0  0
   -4.8210   -2.7415   -2.5529 H   0  0  0  0  0  0  0  0  0  0  0  0
   -3.8472   -0.6479   -3.5563 H   0  0  0  0  0  0  0  0  0  0  0  0
   -1.7172    0.2454   -2.6065 H   0  0  0  0  0  0  0  0  0  0  0  0
   -0.6754   -2.4310    3.0692 H   0  0  0  0  0  0  0  0  0  0  0  0
    0.2731   -0.9519    4.8545 H   0  0  0  0  0  0  0  0  0  0  0  0
    1.9084    0.8679    5.4241 H   0  0  0  0  0  0  0  0  0  0  0  0
    3.1203    2.0200    3.5671 H   0  0  0  0  0  0  0  0  0  0  0  0
    2.6002    3.5326    1.5035 H   0  0  0  0  0  0  0  0  0  0  0  0
    3.9606    4.4562   -0.3518 H   0  0  0  0  0  0  0  0  0  0  0  0
    5.0744    2.9287   -1.9614 H   0  0  0  0  0  0  0  0  0  0  0  0
    4.8433    0.4669   -1.7044 H   0  0  0  0  0  0  0  0  0  0  0  0
    3.4652   -0.4581    0.1420 H   0  0  0  0  0  0  0  0  0  0  0  0
   -3.0352   -1.9582    3.4892 H   0  0  0  0  0  0  0  0  0  0  0  0
   -5.0595   -0.5557    2.9729 H   0  0  0  0  0  0  0  0  0  0  0  0
   -4.8235    1.3349    1.3577 H   0  0  0  0  0  0  0  0  0  0  0  0
   -4.3334    1.6581   -1.1410 H   0  0  0  0  0  0  0  0  0  0  0  0
   -4.0928    3.6797   -2.5589 H   0  0  0  0  0  0  0  0  0  0  0  0
   -2.2403    5.2802   -2.1370 H   0  0  0  0  0  0  0  0  0  0  0  0
   -0.6209    4.8520   -0.3019 H   0  0  0  0  0  0  0  0  0  0  0  0
   -0.8352    2.8071    1.0905 H   0  0  0  0  0  0  0  0  0  0  0  0
    0.5952    1.4573   -1.6266 Br  0  0  0  0  0  0  0  0  0  0  0  0
  2 37  1  0  0  0  0
  3  2  2  0  0  0  0
  3  4  1  0  0  0  0
  4  5  2  0  0  0  0
  5  6  1  0  0  0  0
  5 45  1  0  0  0  0
  6  7  1  0  0  0  0
  7 46  1  0  0  0  0
  7 47  1  0  0  0  0
  8 48  1  0  0  0  0
  9  8  1  0  0  0  0
 10  9  1  0  0  0  0
 10 50  1  0  0  0  0
 11 10  2  0  0  0  0
 12 13  2  0  0  0  0
 12 11  1  0  0  0  0
 13 39  1  0  0  0  0
 14 15  1  0  0  0  0
 14 54  1  1  0  0  0
 15 16  2  0  0  0  0
 16 17  1  0  0  0  0
 16 55  1  0  0  0  0
 17 56  1  0  0  0  0
 18 57  1  0  0  0  0
 18 17  2  0  0  0  0
 19 18  1  0  0  0  0
 20 19  1  0  0  0  0
 21 20  1  0  0  0  0
 21 58  1  0  0  0  0
 22 21  2  0  0  0  0
 23 24  2  0  0  0  0
 23 22  1  0  0  0  0
 24 25  1  0  0  0  0
 25 62  1  0  0  0  0
 25 20  2  0  0  0  0
 26 14  1  0  0  0  0
 26 27  2  0  0  0  0
 27 63  1  0  0  0  0
 28 27  1  0  0  0  0
 28 64  1  0  0  0  0
 29 28  2  0  0  0  0
 30 41  2  0  0  0  0
 30 29  1  0  0  0  0
 31 36  2  0  0  0  0
 31 30  1  0  0  0  0
 32 31  1  0  0  0  0
 33 34  1  0  0  0  0
 33 32  2  0  0  0  0
 34 35  2  0  0  0  0
 35 69  1  0  0  0  0
 35 36  1  0  0  0  0
 36 70  1  0  0  0  0
 37  6  2  0  0  0  0
 37  1  9  0  0  0  0
 38  8  1  6  0  0  0
 38  7  1  0  0  0  0
 38 14  1  0  0  0  0
 38  1  9  0  0  0  0
 39  9  2  0  0  0  0
 39  1  9  0  0  0  0
 40 19  2  0  0  0  0
 40 15  1  0  0  0  0
 40  1  9  0  0  0  0
 41 26  1  0  0  0  0
 41  1  9  0  0  0  0
 42  2  1  0  0  0  0
 43  3  1  0  0  0  0
 44  4  1  0  0  0  0
 49  8  1  0  0  0  0
 51 11  1  0  0  0  0
 52 12  1  0  0  0  0
 53 13  1  0  0  0  0
 59 22  1  0  0  0  0
 60 23  1  0  0  0  0
 61 24  1  0  0  0  0
 65 29  1  0  0  0  0
 66 32  1  0  0  0  0
 67 33  1  0  0  0  0
 68 34  1  0  0  0  0
 71  1  1  0  0  0  0
M  CHG  1   1   2
M  END
$$$$
