
 OpenBabel02052520063D

 77 84  0  0  0  0  0  0  0  0999 V2000
   -0.3518   -0.9013   -0.3276 Fe  0  2  0  0  0  0  0  0  0  0  0  0
    0.6045    1.5160   -0.7456 S   0  0  2  0  0  3  0  0  0  0  0  0
    1.8012    1.9516    0.5963 C   0  0  0  0  0  0  0  0  0  0  0  0
    2.0741    3.4631    0.6961 C   0  0  0  0  0  0  0  0  0  0  0  0
    2.8933    3.6879    1.8896 C   0  0  0  0  0  0  0  0  0  0  0  0
    3.5124    3.7821    2.8659 N   0  0  0  0  0  0  0  0  0  0  0  0
    2.5951    3.8263   -0.1963 H   0  0  0  0  0  0  0  0  0  0  0  0
    1.1413    4.0305    0.7903 H   0  0  0  0  0  0  0  0  0  0  0  0
    2.7211    1.4193    0.3420 H   0  0  0  0  0  0  0  0  0  0  0  0
    1.4365    1.5626    1.5475 H   0  0  0  0  0  0  0  0  0  0  0  0
   -0.8162    2.5786   -0.4410 C   0  0  0  0  0  0  0  0  0  0  0  0
   -1.0205    3.5989   -1.3771 C   0  0  0  0  0  0  0  0  0  0  0  0
   -2.1160    4.4577   -1.2581 C   0  0  0  0  0  0  0  0  0  0  0  0
   -3.0114    4.2889   -0.2042 C   0  0  0  0  0  0  0  0  0  0  0  0
   -2.8095    3.2632    0.7224 C   0  0  0  0  0  0  0  0  0  0  0  0
   -1.7219    2.3874    0.6250 C   0  0  0  0  0  0  0  0  0  0  0  0
   -1.5220    1.3726    1.7283 C   0  0  0  0  0  0  0  0  0  0  0  0
   -1.5772   -0.0939    1.3954 N   0  0  2  0  0  0  0  0  0  0  0  0
   -1.0410   -0.8304    2.5847 C   0  0  0  0  0  0  0  0  0  0  0  0
    0.4677   -0.8646    2.5213 C   0  0  0  0  0  0  0  0  0  0  0  0
    0.9986   -1.0933    1.2855 N   0  0  0  0  0  0  0  0  0  0  0  0
    2.3482   -1.1642    1.1347 C   0  0  0  0  0  0  0  0  0  0  0  0
    2.8229   -1.3693   -0.1464 N   0  0  0  0  0  0  0  0  0  0  0  0
    3.9967   -0.7769   -0.6671 C   0  0  0  0  0  0  0  0  0  0  0  0
    4.6505   -0.0071    0.0131 O   0  0  0  0  0  0  0  0  0  0  0  0
    4.2970   -1.0986   -2.1360 C   0  0  0  0  0  0  0  0  0  0  0  0
    5.7651   -0.7335   -2.4174 C   0  0  0  0  0  0  0  0  0  0  0  0
    5.9672    0.3119   -2.1731 H   0  0  0  0  0  0  0  0  0  0  0  0
    6.4457   -1.3537   -1.8259 H   0  0  0  0  0  0  0  0  0  0  0  0
    5.9856   -0.8961   -3.4770 H   0  0  0  0  0  0  0  0  0  0  0  0
    4.0514   -2.5864   -2.4640 C   0  0  0  0  0  0  0  0  0  0  0  0
    4.3645   -2.7822   -3.4943 H   0  0  0  0  0  0  0  0  0  0  0  0
    4.6314   -3.2435   -1.8078 H   0  0  0  0  0  0  0  0  0  0  0  0
    2.9943   -2.8699   -2.3912 H   0  0  0  0  0  0  0  0  0  0  0  0
    3.3606   -0.2039   -2.9891 C   0  0  0  0  0  0  0  0  0  0  0  0
    3.5252    0.8571   -2.7700 H   0  0  0  0  0  0  0  0  0  0  0  0
    3.5754   -0.3641   -4.0508 H   0  0  0  0  0  0  0  0  0  0  0  0
    2.3037   -0.4396   -2.8166 H   0  0  0  0  0  0  0  0  0  0  0  0
    2.1811   -1.7950   -0.8130 H   0  0  0  0  0  0  0  0  0  0  0  0
    3.2072   -1.0013    2.2395 C   0  0  0  0  0  0  0  0  0  0  0  0
    2.6580   -0.7521    3.4840 C   0  0  0  0  0  0  0  0  0  0  0  0
    1.2624   -0.6749    3.6343 C   0  0  0  0  0  0  0  0  0  0  0  0
    0.8138   -0.4726    4.6009 H   0  0  0  0  0  0  0  0  0  0  0  0
    3.3068   -0.6139    4.3431 H   0  0  0  0  0  0  0  0  0  0  0  0
    4.2762   -1.0552    2.0927 H   0  0  0  0  0  0  0  0  0  0  0  0
   -1.3809   -0.3642    3.5162 H   0  0  0  0  0  0  0  0  0  0  0  0
   -1.4223   -1.8522    2.5795 H   0  0  0  0  0  0  0  0  0  0  0  0
   -2.9219   -0.5651    0.9405 C   0  0  2  0  0  0  0  0  0  0  0  0
   -2.8618   -2.0802    0.7815 C   0  0  0  0  0  0  0  0  0  0  0  0
   -1.7285   -2.5066    0.1859 N   0  0  0  0  0  0  0  0  0  0  0  0
   -1.5465   -3.8125   -0.0593 C   0  0  0  0  0  0  0  0  0  0  0  0
   -2.5091   -4.7593    0.2882 C   0  0  0  0  0  0  0  0  0  0  0  0
   -3.6841   -4.3253    0.9036 C   0  0  0  0  0  0  0  0  0  0  0  0
   -3.8671   -2.9598    1.1574 C   0  0  0  0  0  0  0  0  0  0  0  0
   -4.7679   -2.5950    1.6402 H   0  0  0  0  0  0  0  0  0  0  0  0
   -4.4511   -5.0388    1.1884 H   0  0  0  0  0  0  0  0  0  0  0  0
   -2.3367   -5.8097    0.0801 H   0  0  0  0  0  0  0  0  0  0  0  0
   -0.6112   -4.0788   -0.5401 H   0  0  0  0  0  0  0  0  0  0  0  0
   -3.1814   -0.0030   -0.4538 C   0  0  0  0  0  0  0  0  0  0  0  0
   -2.1249   -0.1070   -1.2845 N   0  0  0  0  0  0  0  0  0  0  0  0
   -2.2358    0.2844   -2.5635 C   0  0  0  0  0  0  0  0  0  0  0  0
   -3.4275    0.7948   -3.0714 C   0  0  0  0  0  0  0  0  0  0  0  0
   -4.5271    0.8995   -2.2176 C   0  0  0  0  0  0  0  0  0  0  0  0
   -4.4046    0.4917   -0.8857 C   0  0  0  0  0  0  0  0  0  0  0  0
   -5.2400    0.5670   -0.1973 H   0  0  0  0  0  0  0  0  0  0  0  0
   -5.4701    1.2953   -2.5819 H   0  0  0  0  0  0  0  0  0  0  0  0
   -3.4878    1.1012   -4.1099 H   0  0  0  0  0  0  0  0  0  0  0  0
   -1.3424    0.1864   -3.1720 H   0  0  0  0  0  0  0  0  0  0  0  0
   -3.7181   -0.2747    1.6362 H   0  0  0  0  0  0  0  0  0  0  0  0
   -0.5410    1.5217    2.1853 H   0  0  0  0  0  0  0  0  0  0  0  0
   -2.2622    1.5609    2.5169 H   0  0  0  0  0  0  0  0  0  0  0  0
   -3.5080    3.1488    1.5475 H   0  0  0  0  0  0  0  0  0  0  0  0
   -3.8609    4.9555   -0.0940 H   0  0  0  0  0  0  0  0  0  0  0  0
   -2.2568    5.2557   -1.9803 H   0  0  0  0  0  0  0  0  0  0  0  0
   -0.3157    3.7274   -2.1929 H   0  0  0  0  0  0  0  0  0  0  0  0
    0.4659   -1.7823   -1.6880 O   0  0  0  0  0  0  0  0  0  0  0  0
    0.1850   -2.1902   -2.5224 H   0  0  0  0  0  0  0  0  0  0  0  0
  2 11  1  0  0  0  0
  2  1  1  0  0  0  0
  2  3  1  1  0  0  0
  3  4  1  0  0  0  0
  3 10  1  0  0  0  0
  4  8  1  0  0  0  0
  4  5  1  0  0  0  0
  5  6  3  0  0  0  0
  7  4  1  0  0  0  0
  9  3  1  0  0  0  0
 11 16  1  0  0  0  0
 12 13  1  0  0  0  0
 12 11  2  0  0  0  0
 13 14  2  0  0  0  0
 14 73  1  0  0  0  0
 14 15  1  0  0  0  0
 15 72  1  0  0  0  0
 16 15  2  0  0  0  0
 16 17  1  0  0  0  0
 17 70  1  0  0  0  0
 17 71  1  0  0  0  0
 18 17  1  1  0  0  0
 18 19  1  0  0  0  0
 18  1  9  0  0  0  0
 19 46  1  0  0  0  0
 20 19  1  0  0  0  0
 20 42  2  0  0  0  0
 21 20  1  0  0  0  0
 21  1  9  0  0  0  0
 22 21  2  0  0  0  0
 22 40  1  0  0  0  0
 23 22  1  0  0  0  0
 24 23  1  0  0  0  0
 24 25  2  0  0  0  0
 26 24  1  0  0  0  0
 27 28  1  0  0  0  0
 27 26  1  0  0  0  0
 27 29  1  0  0  0  0
 30 27  1  0  0  0  0
 31 34  1  0  0  0  0
 31 26  1  0  0  0  0
 31 33  1  0  0  0  0
 32 31  1  0  0  0  0
 35 38  1  0  0  0  0
 35 36  1  0  0  0  0
 35 26  1  0  0  0  0
 37 35  1  0  0  0  0
 39 23  1  0  0  0  0
 40 41  2  0  0  0  0
 41 42  1  0  0  0  0
 41 44  1  0  0  0  0
 42 43  1  0  0  0  0
 45 40  1  0  0  0  0
 47 19  1  0  0  0  0
 48 18  1  0  0  0  0
 48 69  1  1  0  0  0
 49 48  1  0  0  0  0
 49 54  2  0  0  0  0
 50 49  1  0  0  0  0
 50  1  9  0  0  0  0
 51 50  2  0  0  0  0
 51 52  1  0  0  0  0
 52 53  2  0  0  0  0
 53 54  1  0  0  0  0
 53 56  1  0  0  0  0
 54 55  1  0  0  0  0
 57 52  1  0  0  0  0
 58 51  1  0  0  0  0
 59 48  1  0  0  0  0
 60 59  1  0  0  0  0
 60  1  9  0  0  0  0
 61 60  2  0  0  0  0
 62 61  1  0  0  0  0
 62 63  2  0  0  0  0
 63 64  1  0  0  0  0
 64 59  2  0  0  0  0
 64 65  1  0  0  0  0
 66 63  1  0  0  0  0
 67 62  1  0  0  0  0
 68 61  1  0  0  0  0
 74 13  1  0  0  0  0
 75 12  1  0  0  0  0
 76  1  1  0  0  0  0
 77 76  1  0  0  0  0
M  RAD  1   2   2
M  CHG  1   1   2
M  END
$$$$
