
 OpenBabel02072512503D

 78 84  0  0  0  0  0  0  0  0999 V2000
   -0.3574   -0.8319   -0.0454 Fe  0  3  0  0  0 37  0  0  0  0  0  0
    0.5994    1.4622   -0.8989 S   0  0  2  0  0  0  0  0  0  0  0  0
    1.7882    2.1422    0.3444 C   0  0  0  0  0  0  0  0  0  0  0  0
    2.0486    3.6495    0.1742 C   0  0  0  0  0  0  0  0  0  0  0  0
    2.8604    4.0887    1.3118 C   0  3  0  0  0  0  0  0  0  0  0  0
    3.4737    4.3571    2.2590 N   0  0  0  0  0  2  0  0  0  0  0  0
    2.5710    3.8529   -0.7668 H   0  0  0  0  0  0  0  0  0  0  0  0
    1.1110    4.2166    0.1632 H   0  0  0  0  0  0  0  0  0  0  0  0
    2.7135    1.5811    0.1919 H   0  0  0  0  0  0  0  0  0  0  0  0
    1.4238    1.9266    1.3492 H   0  0  0  0  0  0  0  0  0  0  0  0
   -0.8272    2.5554   -0.7994 C   0  0  0  0  0  0  0  0  0  0  0  0
   -1.0349    3.3844   -1.9077 C   0  0  0  0  0  0  0  0  0  0  0  0
   -2.1376    4.2412   -1.9516 C   0  0  0  0  0  0  0  0  0  0  0  0
   -3.0361    4.2614   -0.8871 C   0  0  0  0  0  0  0  0  0  0  0  0
   -2.8301    3.4257    0.2132 C   0  0  0  0  0  0  0  0  0  0  0  0
   -1.7354    2.5561    0.2814 C   0  0  0  0  0  0  0  0  0  0  0  0
   -1.5311    1.7631    1.5528 C   0  0  0  0  0  0  0  0  0  0  0  0
   -1.5764    0.2593    1.4956 N   0  0  1  0  0  0  0  0  0  0  0  0
   -1.0379   -0.2423    2.8002 C   0  0  0  0  0  0  0  0  0  0  0  0
    0.4703   -0.2766    2.7477 C   0  0  0  0  0  0  0  0  0  0  0  0
    1.0094   -0.7360    1.5818 N   0  0  0  0  0  0  0  0  0  0  0  0
    2.3595   -0.8163    1.4601 C   0  0  0  0  0  0  0  0  0  0  0  0
    2.8523   -1.2660    0.2463 N   0  0  0  0  0  0  0  0  0  0  0  0
    4.0105   -0.7576   -0.3838 C   0  0  0  0  0  0  0  0  0  0  0  0
    4.6308    0.1587    0.1241 O   0  0  0  0  0  0  0  0  0  0  0  0
    4.3385   -1.3581   -1.7565 C   0  0  0  0  0  0  0  0  0  0  0  0
    5.8357   -1.1302   -2.0354 C   0  0  0  0  0  0  0  0  0  0  0  0
    6.0966   -0.0733   -1.9494 H   0  0  0  0  0  0  0  0  0  0  0  0
    6.4574   -1.6901   -1.3294 H   0  0  0  0  0  0  0  0  0  0  0  0
    6.0752   -1.4713   -3.0473 H   0  0  0  0  0  0  0  0  0  0  0  0
    4.0159   -2.8637   -1.8396 C   0  0  0  0  0  0  0  0  0  0  0  0
    4.3532   -3.2508   -2.8058 H   0  0  0  0  0  0  0  0  0  0  0  0
    4.5283   -3.4297   -1.0549 H   0  0  0  0  0  0  0  0  0  0  0  0
    2.9417   -3.0792   -1.7738 H   0  0  0  0  0  0  0  0  0  0  0  0
    3.4895   -0.5683   -2.7857 C   0  0  0  0  0  0  0  0  0  0  0  0
    3.7453    0.4963   -2.7667 H   0  0  0  0  0  0  0  0  0  0  0  0
    3.6891   -0.9472   -3.7933 H   0  0  0  0  0  0  0  0  0  0  0  0
    2.4144   -0.6689   -2.5911 H   0  0  0  0  0  0  0  0  0  0  0  0
    2.2414   -1.8567   -0.3069 H   0  0  0  0  0  0  0  0  0  0  0  0
    3.2112   -0.4291    2.5111 C   0  0  0  0  0  0  0  0  0  0  0  0
    2.6522    0.0531    3.6814 C   0  0  0  0  0  0  0  0  0  0  0  0
    1.2560    0.1379    3.8062 C   0  0  0  0  0  0  0  0  0  0  0  0
    0.7975    0.5203    4.7118 H   0  0  0  0  0  0  0  0  0  0  0  0
    3.2938    0.3668    4.4988 H   0  0  0  0  0  0  0  0  0  0  0  0
    4.2816   -0.4974    2.3807 H   0  0  0  0  0  0  0  0  0  0  0  0
   -1.3841    0.3848    3.6294 H   0  0  0  0  0  0  0  0  0  0  0  0
   -1.4125   -1.2503    2.9822 H   0  0  0  0  0  0  0  0  0  0  0  0
   -2.9215   -0.2944    1.1473 C   0  0  2  0  0  0  0  0  0  0  0  0
   -2.8549   -1.8129    1.2645 C   0  0  0  0  0  0  0  0  0  0  0  0
   -1.7213   -2.3398    0.7550 N   0  0  0  0  0  0  0  0  0  0  0  0
   -1.5471   -3.6702    0.7493 C   0  0  0  0  0  0  0  0  0  0  0  0
   -2.5128   -4.5373    1.2580 C   0  0  0  0  0  0  0  0  0  0  0  0
   -3.6865   -3.9973    1.7851 C   0  0  0  0  0  0  0  0  0  0  0  0
   -3.8633   -2.6082    1.7907 C   0  0  0  0  0  0  0  0  0  0  0  0
   -4.7631   -2.1594    2.1989 H   0  0  0  0  0  0  0  0  0  0  0  0
   -4.4565   -4.6459    2.1913 H   0  0  0  0  0  0  0  0  0  0  0  0
   -2.3432   -5.6084    1.2395 H   0  0  0  0  0  0  0  0  0  0  0  0
   -0.6141   -4.0283    0.3271 H   0  0  0  0  0  0  0  0  0  0  0  0
   -3.2005    0.0042   -0.3214 C   0  0  0  0  0  0  0  0  0  0  0  0
   -2.1486   -0.2326   -1.1300 N   0  0  0  0  0  0  0  0  0  0  0  0
   -2.2793   -0.0783   -2.4568 C   0  0  0  0  0  0  0  0  0  0  0  0
   -3.4843    0.3119   -3.0351 C   0  0  0  0  0  0  0  0  0  0  0  0
   -4.5787    0.5507   -2.2022 C   0  0  0  0  0  0  0  0  0  0  0  0
   -4.4364    0.3930   -0.8202 C   0  0  0  0  0  0  0  0  0  0  0  0
   -5.2668    0.5775   -0.1465 H   0  0  0  0  0  0  0  0  0  0  0  0
   -5.5321    0.8576   -2.6210 H   0  0  0  0  0  0  0  0  0  0  0  0
   -3.5580    0.4239   -4.1112 H   0  0  0  0  0  0  0  0  0  0  0  0
   -1.3924   -0.2668   -3.0529 H   0  0  0  0  0  0  0  0  0  0  0  0
   -3.7118    0.1133    1.7887 H   0  0  0  0  0  0  0  0  0  0  0  0
   -0.5518    2.0000    1.9748 H   0  0  0  0  0  0  0  0  0  0  0  0
   -2.2737    2.0882    2.2930 H   0  0  0  0  0  0  0  0  0  0  0  0
   -3.5313    3.4591    1.0433 H   0  0  0  0  0  0  0  0  0  0  0  0
   -3.8915    4.9295   -0.9041 H   0  0  0  0  0  0  0  0  0  0  0  0
   -2.2817    4.8913   -2.8087 H   0  0  0  0  0  0  0  0  0  0  0  0
   -0.3277    3.3662   -2.7312 H   0  0  0  0  0  0  0  0  0  0  0  0
    0.3760   -1.9360   -1.3702 N   0  0  0  0  0  0  0  0  0  0  0  0
    0.2360   -2.5319   -2.4230 N   0  3  0  0  0  0  0  0  0  0  0  0
    0.1285   -3.0928   -3.4162 N   0  5  0  0  0  0  0  0  0  0  0  0
  1 76  1  0  0  0  0
  2 11  1  0  0  0  0
  2  3  1  1  0  0  0
  2  1  9  0  0  0  0
  3 10  1  0  0  0  0
  4  3  1  0  0  0  0
  4  5  1  0  0  0  0
  5  6  2  0  0  0  0
  7  4  1  0  0  0  0
  8  4  1  0  0  0  0
  9  3  1  0  0  0  0
 11 16  1  0  0  0  0
 12 11  2  0  0  0  0
 13 12  1  0  0  0  0
 13 14  2  0  0  0  0
 14 15  1  0  0  0  0
 15 16  2  0  0  0  0
 15 72  1  0  0  0  0
 16 17  1  0  0  0  0
 17 70  1  0  0  0  0
 17 71  1  0  0  0  0
 18 17  1  1  0  0  0
 18 19  1  0  0  0  0
 19 47  1  0  0  0  0
 19 46  1  0  0  0  0
 20 19  1  0  0  0  0
 20 42  2  0  0  0  0
 21 20  1  0  0  0  0
 21  1  9  0  0  0  0
 22 21  2  0  0  0  0
 22 40  1  0  0  0  0
 23 22  1  0  0  0  0
 24 25  2  0  0  0  0
 24 23  1  0  0  0  0
 26 24  1  0  0  0  0
 27 28  1  0  0  0  0
 27 26  1  0  0  0  0
 27 29  1  0  0  0  0
 30 27  1  0  0  0  0
 31 34  1  0  0  0  0
 31 26  1  0  0  0  0
 31 33  1  0  0  0  0
 32 31  1  0  0  0  0
 35 36  1  0  0  0  0
 35 38  1  0  0  0  0
 35 26  1  0  0  0  0
 37 35  1  0  0  0  0
 39 23  1  0  0  0  0
 40 41  2  0  0  0  0
 41 42  1  0  0  0  0
 41 44  1  0  0  0  0
 42 43  1  0  0  0  0
 45 40  1  0  0  0  0
 48 49  1  0  0  0  0
 48 18  1  0  0  0  0
 48 69  1  1  0  0  0
 49 54  2  0  0  0  0
 50 49  1  0  0  0  0
 50  1  9  0  0  0  0
 51 50  2  0  0  0  0
 51 52  1  0  0  0  0
 52 53  2  0  0  0  0
 53 54  1  0  0  0  0
 53 56  1  0  0  0  0
 54 55  1  0  0  0  0
 57 52  1  0  0  0  0
 58 51  1  0  0  0  0
 59 48  1  0  0  0  0
 60 59  1  0  0  0  0
 60  1  9  0  0  0  0
 61 60  2  0  0  0  0
 62 61  1  0  0  0  0
 62 63  2  0  0  0  0
 63 64  1  0  0  0  0
 64 59  2  0  0  0  0
 64 65  1  0  0  0  0
 66 63  1  0  0  0  0
 67 62  1  0  0  0  0
 68 61  1  0  0  0  0
 73 14  1  0  0  0  0
 74 13  1  0  0  0  0
 75 12  1  0  0  0  0
 77 76  2  0  0  0  0
 78 77  2  0  0  0  0
M  RAD  2   1   2   6   2
M  CHG  4   1   1   5   1  77   1  78  -1
M  END
$$$$
