
 OpenBabel02052520063D

 76 83  0  0  0  0  0  0  0  0999 V2000
   -0.3650   -0.7770   -0.0291 Fe  0  2  0  0  0  0  0  0  0  0  0  0
    0.3841    1.5608   -0.9257 S   0  0  2  0  0  3  0  0  0  0  0  0
    1.5138    2.3613    0.2990 C   0  0  0  0  0  0  0  0  0  0  0  0
    1.6662    3.8784    0.0858 C   0  0  0  0  0  0  0  0  0  0  0  0
    2.4277    4.3981    1.2244 C   0  0  0  0  0  0  0  0  0  0  0  0
    3.0042    4.7217    2.1775 N   0  0  0  0  0  0  0  0  0  0  0  0
    2.1895    4.0916   -0.8523 H   0  0  0  0  0  0  0  0  0  0  0  0
    0.6921    4.3792    0.0471 H   0  0  0  0  0  0  0  0  0  0  0  0
    2.4787    1.8646    0.1642 H   0  0  0  0  0  0  0  0  0  0  0  0
    1.1584    2.1516    1.3078 H   0  0  0  0  0  0  0  0  0  0  0  0
   -1.1257    2.5343   -0.8400 C   0  0  0  0  0  0  0  0  0  0  0  0
   -1.4073    3.3167   -1.9655 C   0  0  0  0  0  0  0  0  0  0  0  0
   -2.5718    4.0872   -2.0136 C   0  0  0  0  0  0  0  0  0  0  0  0
   -3.4572    4.0648   -0.9381 C   0  0  0  0  0  0  0  0  0  0  0  0
   -3.1776    3.2723    0.1780 C   0  0  0  0  0  0  0  0  0  0  0  0
   -2.0192    2.4906    0.2518 C   0  0  0  0  0  0  0  0  0  0  0  0
   -1.7407    1.7423    1.5357 C   0  0  0  0  0  0  0  0  0  0  0  0
   -1.6525    0.2386    1.5062 N   0  0  2  0  0  0  0  0  0  0  0  0
   -1.0619   -0.1927    2.8117 C   0  0  0  0  0  0  0  0  0  0  0  0
    0.4385   -0.0741    2.7460 C   0  0  0  0  0  0  0  0  0  0  0  0
    1.0220   -0.5384    1.5988 N   0  0  0  0  0  0  0  0  0  0  0  0
    2.3758   -0.4913    1.4920 C   0  0  0  0  0  0  0  0  0  0  0  0
    2.9590   -0.9838    0.3350 N   0  0  0  0  0  0  0  0  0  0  0  0
    4.0451   -0.3559   -0.3167 C   0  0  0  0  0  0  0  0  0  0  0  0
    4.3804    0.7650    0.0294 O   0  0  0  0  0  0  0  0  0  0  0  0
    4.6993   -1.1087   -1.4781 C   0  0  0  0  0  0  0  0  0  0  0  0
    6.2137   -0.8108   -1.4234 C   0  0  0  0  0  0  0  0  0  0  0  0
    6.4031    0.2647   -1.4220 H   0  0  0  0  0  0  0  0  0  0  0  0
    6.6698   -1.2418   -0.5256 H   0  0  0  0  0  0  0  0  0  0  0  0
    6.7010   -1.2533   -2.2975 H   0  0  0  0  0  0  0  0  0  0  0  0
    4.4686   -2.6304   -1.4305 C   0  0  0  0  0  0  0  0  0  0  0  0
    5.0541   -3.1053   -2.2233 H   0  0  0  0  0  0  0  0  0  0  0  0
    4.7938   -3.0610   -0.4770 H   0  0  0  0  0  0  0  0  0  0  0  0
    3.4235   -2.9104   -1.6098 H   0  0  0  0  0  0  0  0  0  0  0  0
    4.0983   -0.5097   -2.7749 C   0  0  0  0  0  0  0  0  0  0  0  0
    4.2844    0.5676   -2.8255 H   0  0  0  0  0  0  0  0  0  0  0  0
    4.5689   -0.9806   -3.6438 H   0  0  0  0  0  0  0  0  0  0  0  0
    3.0182   -0.6868   -2.8406 H   0  0  0  0  0  0  0  0  0  0  0  0
    2.5295   -1.7845   -0.1103 H   0  0  0  0  0  0  0  0  0  0  0  0
    3.1730    0.0586    2.5138 C   0  0  0  0  0  0  0  0  0  0  0  0
    2.5675    0.5534    3.6530 C   0  0  0  0  0  0  0  0  0  0  0  0
    1.1705    0.4845    3.7755 C   0  0  0  0  0  0  0  0  0  0  0  0
    0.6679    0.8629    4.6591 H   0  0  0  0  0  0  0  0  0  0  0  0
    3.1681    0.9868    4.4463 H   0  0  0  0  0  0  0  0  0  0  0  0
    4.2459    0.0917    2.3852 H   0  0  0  0  0  0  0  0  0  0  0  0
   -1.4657    0.4075    3.6346 H   0  0  0  0  0  0  0  0  0  0  0  0
   -1.3333   -1.2307    3.0057 H   0  0  0  0  0  0  0  0  0  0  0  0
   -2.9488   -0.4347    1.1860 C   0  0  2  0  0  0  0  0  0  0  0  0
   -2.7514   -1.9380    1.3272 C   0  0  0  0  0  0  0  0  0  0  0  0
   -1.5822   -2.3785    0.8128 N   0  0  0  0  0  0  0  0  0  0  0  0
   -1.3019   -3.6919    0.8236 C   0  0  0  0  0  0  0  0  0  0  0  0
   -2.1891   -4.6240    1.3592 C   0  0  0  0  0  0  0  0  0  0  0  0
   -3.3970   -4.1737    1.8918 C   0  0  0  0  0  0  0  0  0  0  0  0
   -3.6859   -2.8035    1.8768 C   0  0  0  0  0  0  0  0  0  0  0  0
   -4.6159   -2.4219    2.2857 H   0  0  0  0  0  0  0  0  0  0  0  0
   -4.1080   -4.8759    2.3159 H   0  0  0  0  0  0  0  0  0  0  0  0
   -1.9332   -5.6779    1.3520 H   0  0  0  0  0  0  0  0  0  0  0  0
   -0.3556   -3.9843    0.3833 H   0  0  0  0  0  0  0  0  0  0  0  0
   -3.2696   -0.1826   -0.2801 C   0  0  0  0  0  0  0  0  0  0  0  0
   -2.2106   -0.3445   -1.0987 N   0  0  0  0  0  0  0  0  0  0  0  0
   -2.3716   -0.2265   -2.4272 C   0  0  0  0  0  0  0  0  0  0  0  0
   -3.6131    0.0583   -2.9902 C   0  0  0  0  0  0  0  0  0  0  0  0
   -4.7129    0.2202   -2.1470 C   0  0  0  0  0  0  0  0  0  0  0  0
   -4.5398    0.0942   -0.7651 C   0  0  0  0  0  0  0  0  0  0  0  0
   -5.3734    0.2164   -0.0813 H   0  0  0  0  0  0  0  0  0  0  0  0
   -5.6938    0.4404   -2.5566 H   0  0  0  0  0  0  0  0  0  0  0  0
   -3.7093    0.1439   -4.0670 H   0  0  0  0  0  0  0  0  0  0  0  0
   -1.4841   -0.3707   -3.0326 H   0  0  0  0  0  0  0  0  0  0  0  0
   -3.7596   -0.0831    1.8348 H   0  0  0  0  0  0  0  0  0  0  0  0
   -0.7872    2.0742    1.9520 H   0  0  0  0  0  0  0  0  0  0  0  0
   -2.5093    2.0093    2.2725 H   0  0  0  0  0  0  0  0  0  0  0  0
   -3.8713    3.2708    1.0148 H   0  0  0  0  0  0  0  0  0  0  0  0
   -4.3610    4.6657   -0.9595 H   0  0  0  0  0  0  0  0  0  0  0  0
   -2.7748    4.7036   -2.8836 H   0  0  0  0  0  0  0  0  0  0  0  0
   -0.7109    3.3311   -2.7984 H   0  0  0  0  0  0  0  0  0  0  0  0
    0.5493   -2.1416   -1.8082 Br  0  0  0  0  0  0  0  0  0  0  0  0
  2 11  1  0  0  0  0
  2  1  1  0  0  0  0
  2  3  1  1  0  0  0
  3 10  1  0  0  0  0
  4  3  1  0  0  0  0
  4  5  1  0  0  0  0
  5  6  3  0  0  0  0
  7  4  1  0  0  0  0
  8  4  1  0  0  0  0
  9  3  1  0  0  0  0
 11 16  1  0  0  0  0
 12 11  2  0  0  0  0
 13 12  1  0  0  0  0
 13 14  2  0  0  0  0
 14 15  1  0  0  0  0
 15 16  2  0  0  0  0
 15 72  1  0  0  0  0
 16 17  1  0  0  0  0
 17 70  1  0  0  0  0
 17 71  1  0  0  0  0
 18 17  1  6  0  0  0
 18 19  1  0  0  0  0
 18  1  9  0  0  0  0
 19 47  1  0  0  0  0
 19 46  1  0  0  0  0
 20 19  1  0  0  0  0
 20 42  2  0  0  0  0
 21 20  1  0  0  0  0
 21  1  9  0  0  0  0
 22 21  2  0  0  0  0
 22 40  1  0  0  0  0
 23 22  1  0  0  0  0
 24 25  2  0  0  0  0
 24 23  1  0  0  0  0
 26 31  1  0  0  0  0
 26 27  1  0  0  0  0
 26 24  1  0  0  0  0
 27 28  1  0  0  0  0
 27 29  1  0  0  0  0
 30 27  1  0  0  0  0
 31 33  1  0  0  0  0
 32 31  1  0  0  0  0
 34 31  1  0  0  0  0
 35 26  1  0  0  0  0
 36 35  1  0  0  0  0
 37 35  1  0  0  0  0
 38 35  1  0  0  0  0
 39 23  1  0  0  0  0
 40 41  2  0  0  0  0
 41 42  1  0  0  0  0
 41 44  1  0  0  0  0
 42 43  1  0  0  0  0
 45 40  1  0  0  0  0
 48 49  1  0  0  0  0
 48 18  1  0  0  0  0
 48 69  1  1  0  0  0
 49 54  2  0  0  0  0
 50 51  2  0  0  0  0
 50 49  1  0  0  0  0
 50  1  9  0  0  0  0
 51 52  1  0  0  0  0
 52 53  2  0  0  0  0
 53 56  1  0  0  0  0
 54 53  1  0  0  0  0
 54 55  1  0  0  0  0
 57 52  1  0  0  0  0
 58 51  1  0  0  0  0
 59 48  1  0  0  0  0
 60 59  1  0  0  0  0
 60  1  9  0  0  0  0
 61 60  2  0  0  0  0
 62 61  1  0  0  0  0
 62 63  2  0  0  0  0
 63 64  1  0  0  0  0
 64 59  2  0  0  0  0
 64 65  1  0  0  0  0
 66 63  1  0  0  0  0
 67 62  1  0  0  0  0
 68 61  1  0  0  0  0
 73 14  1  0  0  0  0
 74 13  1  0  0  0  0
 75 12  1  0  0  0  0
 76  1  1  0  0  0  0
M  RAD  1   2   2
M  CHG  1   1   2
M  END
$$$$
