
 OpenBabel02052520063D

 72 81  0  0  0  0  0  0  0  0999 V2000
   -0.0004    0.2193   -0.0798 Fe  0  2  0  0  0  0  0  0  0  0  0  0
   -1.9781    1.4832   -2.0116 C   0  0  0  0  0  0  0  0  0  0  0  0
   -2.8679    2.4258   -2.5113 C   0  0  0  0  0  0  0  0  0  0  0  0
   -3.2156    3.5098   -1.7019 C   0  0  0  0  0  0  0  0  0  0  0  0
   -2.6685    3.6127   -0.4216 C   0  0  0  0  0  0  0  0  0  0  0  0
   -1.7928    2.6235    0.0193 C   0  0  0  0  0  0  0  0  0  0  0  0
   -1.2403    2.6183    1.4329 C   0  0  0  0  0  0  0  0  0  0  0  0
    1.2393    2.6189    1.4324 C   0  0  0  0  0  0  0  0  0  0  0  0
    1.7923    2.6233    0.0189 C   0  0  0  0  0  0  0  0  0  0  0  0
    2.6685    3.6120   -0.4221 C   0  0  0  0  0  0  0  0  0  0  0  0
    3.2160    3.5085   -1.7021 C   0  0  0  0  0  0  0  0  0  0  0  0
    2.8684    2.4242   -2.5112 C   0  0  0  0  0  0  0  0  0  0  0  0
    1.9781    1.4821   -2.0115 C   0  0  0  0  0  0  0  0  0  0  0  0
    0.0003    0.8774    2.7402 C   0  0  1  0  0  0  0  0  0  0  0  0
   -1.2322   -0.0094    2.6472 C   0  0  0  0  0  0  0  0  0  0  0  0
   -2.0212   -0.3278    3.7440 C   0  0  0  0  0  0  0  0  0  0  0  0
   -3.1404   -1.1395    3.5406 C   0  0  0  0  0  0  0  0  0  0  0  0
   -3.4423   -1.5631    2.2496 C   0  0  0  0  0  0  0  0  0  0  0  0
   -2.6086   -1.1975    1.1860 C   0  0  0  0  0  0  0  0  0  0  0  0
   -2.9895   -1.5456   -0.2073 C   0  0  0  0  0  0  0  0  0  0  0  0
   -2.4342   -2.6109   -0.9155 C   0  0  0  0  0  0  0  0  0  0  0  0
   -2.8458   -2.9659   -2.1911 C   0  0  0  0  0  0  0  0  0  0  0  0
   -3.8583   -2.2146   -2.7942 C   0  0  0  0  0  0  0  0  0  0  0  0
   -4.4309   -1.1220   -2.1377 C   0  0  0  0  0  0  0  0  0  0  0  0
   -3.9856   -0.8135   -0.8600 C   0  0  0  0  0  0  0  0  0  0  0  0
    1.2333   -0.0085    2.6467 C   0  0  0  0  0  0  0  0  0  0  0  0
    2.0235   -0.3256    3.7430 C   0  0  0  0  0  0  0  0  0  0  0  0
    3.1435   -1.1362    3.5392 C   0  0  0  0  0  0  0  0  0  0  0  0
    3.4445   -1.5604    2.2482 C   0  0  0  0  0  0  0  0  0  0  0  0
    2.6095   -1.1963    1.1851 C   0  0  0  0  0  0  0  0  0  0  0  0
    2.9893   -1.5455   -0.2082 C   0  0  0  0  0  0  0  0  0  0  0  0
    3.9864   -0.8153   -0.8616 C   0  0  0  0  0  0  0  0  0  0  0  0
    4.4306   -1.1249   -2.1394 C   0  0  0  0  0  0  0  0  0  0  0  0
    3.8561   -2.2168   -2.7952 C   0  0  0  0  0  0  0  0  0  0  0  0
    2.8427   -2.9664   -2.1914 C   0  0  0  0  0  0  0  0  0  0  0  0
    2.4321   -2.6103   -0.9157 C   0  0  0  0  0  0  0  0  0  0  0  0
   -1.4588    1.5885   -0.7740 N   0  0  0  0  0  0  0  0  0  0  0  0
   -0.0002    1.8075    1.5657 N   0  0  2  0  0  0  0  0  0  0  0  0
    1.4584    1.5881   -0.7740 N   0  0  0  0  0  0  0  0  0  0  0  0
   -1.5007   -0.4582    1.4026 N   0  0  0  0  0  0  0  0  0  0  0  0
    1.5013   -0.4577    1.4022 N   0  0  0  0  0  0  0  0  0  0  0  0
   -0.0008   -0.9672   -1.4291 O   0  0  0  0  0  0  0  0  0  0  0  0
   -1.6601    0.6141   -2.5770 H   0  0  0  0  0  0  0  0  0  0  0  0
   -3.2742    2.3128   -3.5104 H   0  0  0  0  0  0  0  0  0  0  0  0
   -3.9027    4.2688   -2.0630 H   0  0  0  0  0  0  0  0  0  0  0  0
   -2.9238    4.4442    0.2279 H   0  0  0  0  0  0  0  0  0  0  0  0
   -1.0708    3.6442    1.7778 H   0  0  0  0  0  0  0  0  0  0  0  0
   -2.0081    2.1957    2.0885 H   0  0  0  0  0  0  0  0  0  0  0  0
    2.0072    2.1977    2.0887 H   0  0  0  0  0  0  0  0  0  0  0  0
    1.0690    3.6451    1.7761 H   0  0  0  0  0  0  0  0  0  0  0  0
    2.9237    4.4438    0.2272 H   0  0  0  0  0  0  0  0  0  0  0  0
    3.9036    4.2671   -2.0632 H   0  0  0  0  0  0  0  0  0  0  0  0
    3.2751    2.3107   -3.5100 H   0  0  0  0  0  0  0  0  0  0  0  0
    1.6601    0.6128   -2.5766 H   0  0  0  0  0  0  0  0  0  0  0  0
    0.0003    1.4206    3.6930 H   0  0  0  0  0  0  0  0  0  0  0  0
   -1.7764    0.0577    4.7284 H   0  0  0  0  0  0  0  0  0  0  0  0
   -3.7796   -1.4144    4.3739 H   0  0  0  0  0  0  0  0  0  0  0  0
   -4.3222   -2.1635    2.0477 H   0  0  0  0  0  0  0  0  0  0  0  0
   -1.4196   -3.2916   -0.3313 F   0  0  0  0  0  0  0  0  0  0  0  0
   -2.3868   -3.8140   -2.6867 H   0  0  0  0  0  0  0  0  0  0  0  0
   -4.2027   -2.4825   -3.7878 H   0  0  0  0  0  0  0  0  0  0  0  0
   -5.2136   -0.5238   -2.5904 H   0  0  0  0  0  0  0  0  0  0  0  0
   -4.4966    0.2566   -0.2155 F   0  0  0  0  0  0  0  0  0  0  0  0
    1.7792    0.0603    4.7274 H   0  0  0  0  0  0  0  0  0  0  0  0
    3.7836   -1.4101    4.3721 H   0  0  0  0  0  0  0  0  0  0  0  0
    4.3248   -2.1601    2.0460 H   0  0  0  0  0  0  0  0  0  0  0  0
    4.4994    0.2542   -0.2177 F   0  0  0  0  0  0  0  0  0  0  0  0
    5.2140   -0.5281   -2.5926 H   0  0  0  0  0  0  0  0  0  0  0  0
    4.1996   -2.4857   -3.7888 H   0  0  0  0  0  0  0  0  0  0  0  0
    2.3822   -3.8140   -2.6864 H   0  0  0  0  0  0  0  0  0  0  0  0
    1.4169   -3.2893   -0.3308 F   0  0  0  0  0  0  0  0  0  0  0  0
   -0.0010   -1.9322   -1.3082 H   0  0  0  0  0  0  0  0  0  0  0  0
  2 37  1  0  0  0  0
  3  2  2  0  0  0  0
  3  4  1  0  0  0  0
  4  5  2  0  0  0  0
  5  6  1  0  0  0  0
  5 46  1  0  0  0  0
  6  7  1  0  0  0  0
  7 38  1  0  0  0  0
  7 47  1  0  0  0  0
  7 48  1  0  0  0  0
  8 50  1  0  0  0  0
  8 49  1  0  0  0  0
  9  8  1  0  0  0  0
 10  9  1  0  0  0  0
 10 51  1  0  0  0  0
 11 10  2  0  0  0  0
 12 13  2  0  0  0  0
 12 11  1  0  0  0  0
 13 39  1  0  0  0  0
 14 55  1  1  0  0  0
 15 14  1  0  0  0  0
 15 16  2  0  0  0  0
 16 56  1  0  0  0  0
 17 16  1  0  0  0  0
 17 57  1  0  0  0  0
 18 17  2  0  0  0  0
 19 40  2  0  0  0  0
 19 18  1  0  0  0  0
 20 19  1  0  0  0  0
 21 59  1  0  0  0  0
 21 20  1  0  0  0  0
 22 21  2  0  0  0  0
 23 22  1  0  0  0  0
 23 24  2  0  0  0  0
 24 25  1  0  0  0  0
 25 63  1  0  0  0  0
 25 20  2  0  0  0  0
 26 14  1  0  0  0  0
 26 27  2  0  0  0  0
 27 64  1  0  0  0  0
 28 27  1  0  0  0  0
 28 65  1  0  0  0  0
 29 28  2  0  0  0  0
 30 41  2  0  0  0  0
 30 29  1  0  0  0  0
 31 30  1  0  0  0  0
 32 67  1  0  0  0  0
 32 31  1  0  0  0  0
 33 32  2  0  0  0  0
 34 35  2  0  0  0  0
 34 33  1  0  0  0  0
 35 36  1  0  0  0  0
 36 71  1  0  0  0  0
 36 31  2  0  0  0  0
 37  6  2  0  0  0  0
 37  1  9  0  0  0  0
 38  8  1  6  0  0  0
 38 14  1  0  0  0  0
 38  1  9  0  0  0  0
 39  9  2  0  0  0  0
 39  1  9  0  0  0  0
 40 15  1  0  0  0  0
 40  1  9  0  0  0  0
 41 26  1  0  0  0  0
 41  1  9  0  0  0  0
 42 72  1  0  0  0  0
 42  1  1  0  0  0  0
 43  2  1  0  0  0  0
 44  3  1  0  0  0  0
 45  4  1  0  0  0  0
 52 11  1  0  0  0  0
 53 12  1  0  0  0  0
 54 13  1  0  0  0  0
 58 18  1  0  0  0  0
 60 22  1  0  0  0  0
 61 23  1  0  0  0  0
 62 24  1  0  0  0  0
 66 29  1  0  0  0  0
 68 33  1  0  0  0  0
 69 34  1  0  0  0  0
 70 35  1  0  0  0  0
M  CHG  1   1   2
M  END
$$$$
