
 OpenBabel02072512503D

 73 80  0  0  0  0  0  0  0  0999 V2000
    0.0661   -0.5849   -0.2364 Fe  0  3  1  0  0 28  0  0  0  0  0  0
    1.8787   -1.9542   -2.3484 C   0  0  0  0  0  0  0  0  0  0  0  0
    2.6926   -2.9379   -2.8976 C   0  0  0  0  0  0  0  0  0  0  0  0
    2.9494   -4.0873   -2.1473 C   0  0  0  0  0  0  0  0  0  0  0  0
    2.3825   -4.2122   -0.8776 C   0  0  0  0  0  0  0  0  0  0  0  0
    1.5853   -3.1804   -0.3919 C   0  0  0  0  0  0  0  0  0  0  0  0
    0.9932   -3.1892    0.9988 C   0  0  0  0  0  0  0  0  0  0  0  0
   -1.4035   -3.2087    0.4604 C   0  0  0  0  0  0  0  0  0  0  0  0
   -2.2316   -2.4768   -0.5789 C   0  0  0  0  0  0  0  0  0  0  0  0
   -3.5050   -2.9198   -0.9291 C   0  0  0  0  0  0  0  0  0  0  0  0
   -4.2051   -2.2473   -1.9320 C   0  0  0  0  0  0  0  0  0  0  0  0
   -3.6129   -1.1491   -2.5585 C   0  0  0  0  0  0  0  0  0  0  0  0
   -2.3411   -0.7642   -2.1543 C   0  0  0  0  0  0  0  0  0  0  0  0
   -0.5674   -1.7479    2.3098 C   0  0  1  0  0  0  0  0  0  0  0  0
    0.5837   -0.8125    2.6657 C   0  3  0  0  0  0  0  0  0  0  0  0
    0.9209   -0.5150    3.9779 C   0  0  0  0  0  0  0  0  0  0  0  0
    1.8818    0.4749    4.2068 C   0  0  0  0  0  0  0  0  0  0  0  0
    2.4948    1.0924    3.1213 C   0  0  0  0  0  0  0  0  0  0  0  0
    2.1450    0.7098    1.8209 C   0  0  0  0  0  0  0  0  0  0  0  0
    2.8669    1.2506    0.6490 C   0  0  0  0  0  0  0  0  0  0  0  0
    2.9164    2.6208    0.3618 C   0  0  0  0  0  0  0  0  0  0  0  0
    3.6162    3.1332   -0.7225 C   0  0  0  0  0  0  0  0  0  0  0  0
    4.3110    2.2489   -1.5506 C   0  0  0  0  0  0  0  0  0  0  0  0
    4.3026    0.8734   -1.2999 C   0  0  0  0  0  0  0  0  0  0  0  0
    3.5893    0.4091   -0.2059 C   0  0  0  0  0  0  0  0  0  0  0  0
   -1.8000   -0.8741    2.1220 C   0  0  0  0  0  0  0  0  0  0  0  0
   -2.9668   -0.9922    2.8617 C   0  0  0  0  0  0  0  0  0  0  0  0
   -4.0133   -0.1039    2.5818 C   0  0  0  0  0  0  0  0  0  0  0  0
   -3.8296    0.8848    1.6219 C   0  0  0  0  0  0  0  0  0  0  0  0
   -2.6061    0.9646    0.9371 C   0  0  0  0  0  0  0  0  0  0  0  0
   -2.3066    2.0715    0.0085 C   0  0  0  0  0  0  0  0  0  0  0  0
   -3.1563    2.4310   -1.0437 C   0  0  0  0  0  0  0  0  0  0  0  0
   -2.8929    3.4961   -1.8939 C   0  0  0  0  0  0  0  0  0  0  0  0
   -1.7409    4.2557   -1.6724 C   0  0  0  0  0  0  0  0  0  0  0  0
   -0.8626    3.9449   -0.6295 C   0  0  0  0  0  0  0  0  0  0  0  0
   -1.1608    2.8622    0.1818 C   0  0  0  0  0  0  0  0  0  0  0  0
    1.3372   -2.0744   -1.1233 N   0  0  0  0  0  0  0  0  0  0  0  0
   -0.2712   -2.4082    1.0057 N   0  0  1  0  0  0  0  0  0  0  0  0
   -1.6682   -1.4153   -1.1865 N   0  0  0  0  0  0  0  0  0  0  0  0
    1.1733   -0.2066    1.6108 N   0  0  0  0  0  2  0  0  0  0  0  0
   -1.6358    0.0592    1.1647 N   0  0  0  0  0  0  0  0  0  0  0  0
    1.6416   -1.0427   -2.8842 H   0  0  0  0  0  0  0  0  0  0  0  0
    3.1091   -2.8061   -3.8902 H   0  0  0  0  0  0  0  0  0  0  0  0
    3.5766   -4.8784   -2.5465 H   0  0  0  0  0  0  0  0  0  0  0  0
    2.5603   -5.0945   -0.2708 H   0  0  0  0  0  0  0  0  0  0  0  0
    0.8347   -4.2108    1.3640 H   0  0  0  0  0  0  0  0  0  0  0  0
    1.7046   -2.7082    1.6744 H   0  0  0  0  0  0  0  0  0  0  0  0
   -2.0449   -3.5710    1.2721 H   0  0  0  0  0  0  0  0  0  0  0  0
   -0.9801   -4.0959   -0.0219 H   0  0  0  0  0  0  0  0  0  0  0  0
   -3.9419   -3.7753   -0.4232 H   0  0  0  0  0  0  0  0  0  0  0  0
   -5.2013   -2.5733   -2.2150 H   0  0  0  0  0  0  0  0  0  0  0  0
   -4.1279   -0.5917   -3.3324 H   0  0  0  0  0  0  0  0  0  0  0  0
   -1.8380    0.0954   -2.5809 H   0  0  0  0  0  0  0  0  0  0  0  0
   -0.7302   -2.4833    3.1073 H   0  0  0  0  0  0  0  0  0  0  0  0
    0.4353   -1.0288    4.8011 H   0  0  0  0  0  0  0  0  0  0  0  0
    2.1582    0.7466    5.2207 H   0  0  0  0  0  0  0  0  0  0  0  0
    3.2599    1.8469    3.2631 H   0  0  0  0  0  0  0  0  0  0  0  0
    2.2378    3.4609    1.1627 F   0  0  0  0  0  0  0  0  0  0  0  0
    3.6140    4.2025   -0.9002 H   0  0  0  0  0  0  0  0  0  0  0  0
    4.8688    2.6360   -2.3969 H   0  0  0  0  0  0  0  0  0  0  0  0
    4.8591    0.1737   -1.9132 H   0  0  0  0  0  0  0  0  0  0  0  0
    3.5967   -0.9156    0.0717 F   0  0  0  0  0  0  0  0  0  0  0  0
   -3.0623   -1.7524    3.6303 H   0  0  0  0  0  0  0  0  0  0  0  0
   -4.9498   -0.1713    3.1267 H   0  0  0  0  0  0  0  0  0  0  0  0
   -4.6048    1.6117    1.4094 H   0  0  0  0  0  0  0  0  0  0  0  0
   -4.2580    1.6774   -1.2454 F   0  0  0  0  0  0  0  0  0  0  0  0
   -3.5855    3.7244   -2.6960 H   0  0  0  0  0  0  0  0  0  0  0  0
   -1.5249    5.0995   -2.3195 H   0  0  0  0  0  0  0  0  0  0  0  0
    0.0331    4.5228   -0.4317 H   0  0  0  0  0  0  0  0  0  0  0  0
   -0.3203    2.5470    1.1893 F   0  0  0  0  0  0  0  0  0  0  0  0
    0.4355    0.8077   -1.3957 N   0  0  0  0  0  0  0  0  0  0  0  0
    0.8146    1.6588   -2.1640 N   0  3  0  0  0  0  0  0  0  0  0  0
    1.1666    2.4789   -2.8868 N   0  5  0  0  0  0  0  0  0  0  0  0
  1 71  1  6  0  0  0
  2 37  1  0  0  0  0
  3  2  2  0  0  0  0
  3  4  1  0  0  0  0
  4  5  2  0  0  0  0
  5  6  1  0  0  0  0
  5 45  1  0  0  0  0
  6  7  1  0  0  0  0
  7 38  1  0  0  0  0
  7 46  1  0  0  0  0
  7 47  1  0  0  0  0
  8 48  1  0  0  0  0
  9  8  1  0  0  0  0
 10  9  1  0  0  0  0
 10 50  1  0  0  0  0
 11 10  2  0  0  0  0
 12 13  2  0  0  0  0
 12 11  1  0  0  0  0
 13 39  1  0  0  0  0
 14 15  1  0  0  0  0
 14 54  1  1  0  0  0
 15 16  1  0  0  0  0
 16 17  2  0  0  0  0
 16 55  1  0  0  0  0
 17 56  1  0  0  0  0
 18 57  1  0  0  0  0
 18 17  1  0  0  0  0
 19 18  2  0  0  0  0
 20 19  1  0  0  0  0
 21 20  1  0  0  0  0
 21 58  1  0  0  0  0
 22 21  2  0  0  0  0
 23 24  2  0  0  0  0
 23 22  1  0  0  0  0
 24 25  1  0  0  0  0
 25 62  1  0  0  0  0
 25 20  2  0  0  0  0
 26 14  1  0  0  0  0
 26 27  2  0  0  0  0
 27 63  1  0  0  0  0
 28 27  1  0  0  0  0
 28 64  1  0  0  0  0
 29 28  2  0  0  0  0
 30 41  2  0  0  0  0
 30 29  1  0  0  0  0
 31 36  2  0  0  0  0
 31 30  1  0  0  0  0
 32 31  1  0  0  0  0
 33 34  1  0  0  0  0
 33 32  2  0  0  0  0
 34 35  2  0  0  0  0
 35 69  1  0  0  0  0
 35 36  1  0  0  0  0
 36 70  1  0  0  0  0
 37  6  2  0  0  0  0
 37  1  9  0  0  0  0
 38  8  1  1  0  0  0
 38 14  1  0  0  0  0
 39  9  2  0  0  0  0
 39  1  9  0  0  0  0
 40 19  1  0  0  0  0
 40 15  1  0  0  0  0
 41 26  1  0  0  0  0
 41  1  9  0  0  0  0
 42  2  1  0  0  0  0
 43  3  1  0  0  0  0
 44  4  1  0  0  0  0
 49  8  1  0  0  0  0
 51 11  1  0  0  0  0
 52 12  1  0  0  0  0
 53 13  1  0  0  0  0
 59 22  1  0  0  0  0
 60 23  1  0  0  0  0
 61 24  1  0  0  0  0
 65 29  1  0  0  0  0
 66 32  1  0  0  0  0
 67 33  1  0  0  0  0
 68 34  1  0  0  0  0
 72 71  2  0  0  0  0
 73 72  2  0  0  0  0
M  RAD  2   1   2  40   2
M  CHG  4   1   1  15   1  72   1  73  -1
M  END
$$$$
