
 OpenBabel02052520063D

 71 80  0  0  0  0  0  0  0  0999 V2000
    0.1420   -0.5328   -0.2356 Fe  0  2  0  0  0  0  0  0  0  0  0  0
    2.0779   -1.9148   -2.2363 C   0  0  0  0  0  0  0  0  0  0  0  0
    2.9842   -2.8642   -2.6946 C   0  0  0  0  0  0  0  0  0  0  0  0
    3.3606   -3.9017   -1.8407 C   0  0  0  0  0  0  0  0  0  0  0  0
    2.8149   -3.9556   -0.5565 C   0  0  0  0  0  0  0  0  0  0  0  0
    1.9207   -2.9663   -0.1629 C   0  0  0  0  0  0  0  0  0  0  0  0
    1.3409   -2.9002    1.2290 C   0  0  0  0  0  0  0  0  0  0  0  0
   -1.0362   -3.2316    0.7116 C   0  0  0  0  0  0  0  0  0  0  0  0
   -1.9462   -2.6852   -0.3696 C   0  0  0  0  0  0  0  0  0  0  0  0
   -3.1621   -3.2970   -0.6623 C   0  0  0  0  0  0  0  0  0  0  0  0
   -3.9390   -2.7980   -1.7093 C   0  0  0  0  0  0  0  0  0  0  0  0
   -3.4762   -1.7002   -2.4360 C   0  0  0  0  0  0  0  0  0  0  0  0
   -2.2549   -1.1382   -2.0869 C   0  0  0  0  0  0  0  0  0  0  0  0
   -0.3721   -1.5203    2.4107 C   0  0  1  0  0  0  0  0  0  0  0  0
    0.6716   -0.4393    2.6626 C   0  0  0  0  0  0  0  0  0  0  0  0
    0.9727    0.0303    3.9313 C   0  0  0  0  0  0  0  0  0  0  0  0
    1.8276    1.1324    4.0444 C   0  0  0  0  0  0  0  0  0  0  0  0
    2.3846    1.6836    2.8954 C   0  0  0  0  0  0  0  0  0  0  0  0
    2.0851    1.1277    1.6460 C   0  0  0  0  0  0  0  0  0  0  0  0
    2.7641    1.5842    0.4173 C   0  0  0  0  0  0  0  0  0  0  0  0
    2.6593    2.8964   -0.0590 C   0  0  0  0  0  0  0  0  0  0  0  0
    3.2859    3.3193   -1.2221 C   0  0  0  0  0  0  0  0  0  0  0  0
    4.0677    2.4052   -1.9320 C   0  0  0  0  0  0  0  0  0  0  0  0
    4.2206    1.0890   -1.4861 C   0  0  0  0  0  0  0  0  0  0  0  0
    3.5683    0.7108   -0.3245 C   0  0  0  0  0  0  0  0  0  0  0  0
   -1.6889   -0.8067    2.1488 C   0  0  0  0  0  0  0  0  0  0  0  0
   -2.8435   -0.9891    2.8928 C   0  0  0  0  0  0  0  0  0  0  0  0
   -3.9769   -0.2456    2.5367 C   0  0  0  0  0  0  0  0  0  0  0  0
   -3.8868    0.6796    1.5041 C   0  0  0  0  0  0  0  0  0  0  0  0
   -2.6701    0.8408    0.8198 C   0  0  0  0  0  0  0  0  0  0  0  0
   -2.4766    1.9142   -0.1707 C   0  0  0  0  0  0  0  0  0  0  0  0
   -3.3417    2.1143   -1.2527 C   0  0  0  0  0  0  0  0  0  0  0  0
   -3.1848    3.1535   -2.1572 C   0  0  0  0  0  0  0  0  0  0  0  0
   -2.1286    4.0491   -1.9641 C   0  0  0  0  0  0  0  0  0  0  0  0
   -1.2406    3.8994   -0.8951 C   0  0  0  0  0  0  0  0  0  0  0  0
   -1.4309    2.8373   -0.0275 C   0  0  0  0  0  0  0  0  0  0  0  0
    1.5566   -1.9666   -0.9953 N   0  0  0  0  0  0  0  0  0  0  0  0
   -0.0015   -2.2653    1.1726 N   0  0  2  0  0  0  0  0  0  0  0  0
   -1.5082   -1.6226   -1.0739 N   0  0  0  0  0  0  0  0  0  0  0  0
    1.2018    0.1076    1.5445 N   0  0  0  0  0  0  0  0  0  0  0  0
   -1.6144    0.0579    1.1171 N   0  0  0  0  0  0  0  0  0  0  0  0
    1.7514   -1.0883   -2.8545 H   0  0  0  0  0  0  0  0  0  0  0  0
    3.3794   -2.7890   -3.7017 H   0  0  0  0  0  0  0  0  0  0  0  0
    4.0626   -4.6618   -2.1694 H   0  0  0  0  0  0  0  0  0  0  0  0
    3.0834   -4.7502    0.1324 H   0  0  0  0  0  0  0  0  0  0  0  0
    1.2920   -3.8911    1.6954 H   0  0  0  0  0  0  0  0  0  0  0  0
    1.9973   -2.2803    1.8438 H   0  0  0  0  0  0  0  0  0  0  0  0
   -1.6261   -3.5958    1.5605 H   0  0  0  0  0  0  0  0  0  0  0  0
   -0.5154   -4.1006    0.2964 H   0  0  0  0  0  0  0  0  0  0  0  0
   -3.4952   -4.1496   -0.0787 H   0  0  0  0  0  0  0  0  0  0  0  0
   -4.8929   -3.2576   -1.9490 H   0  0  0  0  0  0  0  0  0  0  0  0
   -4.0521   -1.2737   -3.2493 H   0  0  0  0  0  0  0  0  0  0  0  0
   -1.8543   -0.2719   -2.5978 H   0  0  0  0  0  0  0  0  0  0  0  0
   -0.4555   -2.1917    3.2739 H   0  0  0  0  0  0  0  0  0  0  0  0
    0.5389   -0.4382    4.8087 H   0  0  0  0  0  0  0  0  0  0  0  0
    2.0695    1.5395    5.0212 H   0  0  0  0  0  0  0  0  0  0  0  0
    3.0741    2.5181    2.9490 H   0  0  0  0  0  0  0  0  0  0  0  0
    1.8956    3.7606    0.6332 F   0  0  0  0  0  0  0  0  0  0  0  0
    3.1636    4.3450   -1.5507 H   0  0  0  0  0  0  0  0  0  0  0  0
    4.5732    2.7251   -2.8372 H   0  0  0  0  0  0  0  0  0  0  0  0
    4.8476    0.3744   -2.0072 H   0  0  0  0  0  0  0  0  0  0  0  0
    3.7187   -0.5544    0.1371 F   0  0  0  0  0  0  0  0  0  0  0  0
   -2.8645   -1.6887    3.7220 H   0  0  0  0  0  0  0  0  0  0  0  0
   -4.9076   -0.3705    3.0814 H   0  0  0  0  0  0  0  0  0  0  0  0
   -4.7306    1.3037    1.2338 H   0  0  0  0  0  0  0  0  0  0  0  0
   -4.3449    1.2257   -1.4230 F   0  0  0  0  0  0  0  0  0  0  0  0
   -3.8809    3.2559   -2.9819 H   0  0  0  0  0  0  0  0  0  0  0  0
   -1.9965    4.8735   -2.6572 H   0  0  0  0  0  0  0  0  0  0  0  0
   -0.4105    4.5758   -0.7279 H   0  0  0  0  0  0  0  0  0  0  0  0
   -0.5758    2.6658    1.0028 F   0  0  0  0  0  0  0  0  0  0  0  0
    0.3983    0.9651   -1.8390 Cl  0  0  0  0  0  0  0  0  0  0  0  0
  2 37  1  0  0  0  0
  3  2  2  0  0  0  0
  3  4  1  0  0  0  0
  4  5  2  0  0  0  0
  5  6  1  0  0  0  0
  5 45  1  0  0  0  0
  6  7  1  0  0  0  0
  7 46  1  0  0  0  0
  7 47  1  0  0  0  0
  8 48  1  0  0  0  0
  9  8  1  0  0  0  0
 10  9  1  0  0  0  0
 10 50  1  0  0  0  0
 11 10  2  0  0  0  0
 12 13  2  0  0  0  0
 12 11  1  0  0  0  0
 13 39  1  0  0  0  0
 14 15  1  0  0  0  0
 14 54  1  1  0  0  0
 15 16  2  0  0  0  0
 16 17  1  0  0  0  0
 16 55  1  0  0  0  0
 17 56  1  0  0  0  0
 18 57  1  0  0  0  0
 18 17  2  0  0  0  0
 19 18  1  0  0  0  0
 20 19  1  0  0  0  0
 21 20  1  0  0  0  0
 21 58  1  0  0  0  0
 22 21  2  0  0  0  0
 23 24  2  0  0  0  0
 23 22  1  0  0  0  0
 24 25  1  0  0  0  0
 25 62  1  0  0  0  0
 25 20  2  0  0  0  0
 26 14  1  0  0  0  0
 26 27  2  0  0  0  0
 27 63  1  0  0  0  0
 28 27  1  0  0  0  0
 28 64  1  0  0  0  0
 29 28  2  0  0  0  0
 30 41  2  0  0  0  0
 30 29  1  0  0  0  0
 31 36  2  0  0  0  0
 31 30  1  0  0  0  0
 32 31  1  0  0  0  0
 33 34  1  0  0  0  0
 33 32  2  0  0  0  0
 34 35  2  0  0  0  0
 35 69  1  0  0  0  0
 35 36  1  0  0  0  0
 36 70  1  0  0  0  0
 37  6  2  0  0  0  0
 37  1  9  0  0  0  0
 38  8  1  6  0  0  0
 38  7  1  0  0  0  0
 38 14  1  0  0  0  0
 38  1  9  0  0  0  0
 39  9  2  0  0  0  0
 39  1  9  0  0  0  0
 40 19  2  0  0  0  0
 40 15  1  0  0  0  0
 40  1  9  0  0  0  0
 41 26  1  0  0  0  0
 41  1  9  0  0  0  0
 42  2  1  0  0  0  0
 43  3  1  0  0  0  0
 44  4  1  0  0  0  0
 49  8  1  0  0  0  0
 51 11  1  0  0  0  0
 52 12  1  0  0  0  0
 53 13  1  0  0  0  0
 59 22  1  0  0  0  0
 60 23  1  0  0  0  0
 61 24  1  0  0  0  0
 65 29  1  0  0  0  0
 66 32  1  0  0  0  0
 67 33  1  0  0  0  0
 68 34  1  0  0  0  0
 71  1  1  0  0  0  0
M  CHG  1   1   2
M  END
$$$$
