
 OpenBabel02052520063D

 71 80  0  0  0  0  0  0  0  0999 V2000
    0.1468   -0.4306   -0.2027 Fe  0  2  0  0  0  0  0  0  0  0  0  0
    1.8972   -1.7031   -2.3408 C   0  0  0  0  0  0  0  0  0  0  0  0
    2.7171   -2.6538   -2.9379 C   0  0  0  0  0  0  0  0  0  0  0  0
    3.0758   -3.7854   -2.2022 C   0  0  0  0  0  0  0  0  0  0  0  0
    2.6053   -3.9320   -0.8945 C   0  0  0  0  0  0  0  0  0  0  0  0
    1.7959   -2.9366   -0.3582 C   0  0  0  0  0  0  0  0  0  0  0  0
    1.2972   -2.9489    1.0699 C   0  0  0  0  0  0  0  0  0  0  0  0
   -1.1404   -3.1149    0.7326 C   0  0  0  0  0  0  0  0  0  0  0  0
   -1.9998   -2.5246   -0.3722 C   0  0  0  0  0  0  0  0  0  0  0  0
   -3.2304   -3.0809   -0.7129 C   0  0  0  0  0  0  0  0  0  0  0  0
   -3.9551   -2.5244   -1.7689 C   0  0  0  0  0  0  0  0  0  0  0  0
   -3.4297   -1.4316   -2.4622 C   0  0  0  0  0  0  0  0  0  0  0  0
   -2.1959   -0.9286   -2.0695 C   0  0  0  0  0  0  0  0  0  0  0  0
   -0.2380   -1.5123    2.4343 C   0  0  1  0  0  0  0  0  0  0  0  0
    0.8871   -0.5058    2.6448 C   0  0  0  0  0  0  0  0  0  0  0  0
    1.3408   -0.1293    3.8998 C   0  0  0  0  0  0  0  0  0  0  0  0
    2.2686    0.9153    3.9829 C   0  0  0  0  0  0  0  0  0  0  0  0
    2.7365    1.5103    2.8150 C   0  0  0  0  0  0  0  0  0  0  0  0
    2.2775    1.0509    1.5756 C   0  0  0  0  0  0  0  0  0  0  0  0
    2.8244    1.5606    0.3003 C   0  0  0  0  0  0  0  0  0  0  0  0
    2.6881    2.8967   -0.0948 C   0  0  0  0  0  0  0  0  0  0  0  0
    3.1894    3.3713   -1.2989 C   0  0  0  0  0  0  0  0  0  0  0  0
    3.8774    2.4874   -2.1332 C   0  0  0  0  0  0  0  0  0  0  0  0
    4.0663    1.1510   -1.7682 C   0  0  0  0  0  0  0  0  0  0  0  0
    3.5398    0.7209   -0.5612 C   0  0  0  0  0  0  0  0  0  0  0  0
   -1.5251   -0.7125    2.2862 C   0  0  0  0  0  0  0  0  0  0  0  0
   -2.6038   -0.8032    3.1515 C   0  0  0  0  0  0  0  0  0  0  0  0
   -3.7256   -0.0064    2.8881 C   0  0  0  0  0  0  0  0  0  0  0  0
   -3.7097    0.8555    1.7986 C   0  0  0  0  0  0  0  0  0  0  0  0
   -2.5735    0.9139    0.9739 C   0  0  0  0  0  0  0  0  0  0  0  0
   -2.4839    1.8583   -0.1549 C   0  0  0  0  0  0  0  0  0  0  0  0
   -3.5187    2.0064   -1.0907 C   0  0  0  0  0  0  0  0  0  0  0  0
   -3.4597    2.9093   -2.1410 C   0  0  0  0  0  0  0  0  0  0  0  0
   -2.3266    3.7197   -2.2610 C   0  0  0  0  0  0  0  0  0  0  0  0
   -1.2689    3.6163   -1.3540 C   0  0  0  0  0  0  0  0  0  0  0  0
   -1.3694    2.6907   -0.3302 C   0  0  0  0  0  0  0  0  0  0  0  0
    1.4518   -1.8521   -1.0807 N   0  0  0  0  0  0  0  0  0  0  0  0
   -0.0077   -2.2402    1.1502 N   0  0  2  0  0  0  0  0  0  0  0  0
   -1.5094   -1.4682   -1.0437 N   0  0  0  0  0  0  0  0  0  0  0  0
    1.3376    0.0804    1.5130 N   0  0  0  0  0  0  0  0  0  0  0  0
   -1.5156    0.1137    1.2204 N   0  0  0  0  0  0  0  0  0  0  0  0
    1.5782   -0.7977   -2.8442 H   0  0  0  0  0  0  0  0  0  0  0  0
    3.0608   -2.5104   -3.9565 H   0  0  0  0  0  0  0  0  0  0  0  0
    3.7101   -4.5492   -2.6415 H   0  0  0  0  0  0  0  0  0  0  0  0
    2.8677   -4.8015   -0.3002 H   0  0  0  0  0  0  0  0  0  0  0  0
    1.2246   -3.9691    1.4637 H   0  0  0  0  0  0  0  0  0  0  0  0
    2.0234   -2.4138    1.6873 H   0  0  0  0  0  0  0  0  0  0  0  0
   -1.7634   -3.3733    1.5961 H   0  0  0  0  0  0  0  0  0  0  0  0
   -0.7215   -4.0556    0.3607 H   0  0  0  0  0  0  0  0  0  0  0  0
   -3.6160   -3.9324   -0.1605 H   0  0  0  0  0  0  0  0  0  0  0  0
   -4.9201   -2.9386   -2.0444 H   0  0  0  0  0  0  0  0  0  0  0  0
   -3.9666   -0.9713   -3.2839 H   0  0  0  0  0  0  0  0  0  0  0  0
   -1.7309   -0.0705   -2.5406 H   0  0  0  0  0  0  0  0  0  0  0  0
   -0.3055   -2.2004    3.2856 H   0  0  0  0  0  0  0  0  0  0  0  0
    0.9703   -0.6249    4.7911 H   0  0  0  0  0  0  0  0  0  0  0  0
    2.6324    1.2470    4.9504 H   0  0  0  0  0  0  0  0  0  0  0  0
    3.4718    2.3061    2.8443 H   0  0  0  0  0  0  0  0  0  0  0  0
    2.0406    3.7350    0.7298 F   0  0  0  0  0  0  0  0  0  0  0  0
    3.0537    4.4154   -1.5572 H   0  0  0  0  0  0  0  0  0  0  0  0
    4.2881    2.8485   -3.0705 H   0  0  0  0  0  0  0  0  0  0  0  0
    4.6322    0.4611   -2.3838 H   0  0  0  0  0  0  0  0  0  0  0  0
    3.7398   -0.5598   -0.1689 F   0  0  0  0  0  0  0  0  0  0  0  0
   -2.5765   -1.4760    4.0024 H   0  0  0  0  0  0  0  0  0  0  0  0
   -4.5950   -0.0530    3.5366 H   0  0  0  0  0  0  0  0  0  0  0  0
   -4.5551    1.4967    1.5801 H   0  0  0  0  0  0  0  0  0  0  0  0
   -4.5938    1.2003   -0.9721 F   0  0  0  0  0  0  0  0  0  0  0  0
   -4.2896    2.9755   -2.8353 H   0  0  0  0  0  0  0  0  0  0  0  0
   -2.2697    4.4405   -3.0701 H   0  0  0  0  0  0  0  0  0  0  0  0
   -0.3828    4.2363   -1.4232 H   0  0  0  0  0  0  0  0  0  0  0  0
   -0.3561    2.5774    0.5566 F   0  0  0  0  0  0  0  0  0  0  0  0
    0.2901    0.7214   -1.5352 F   0  0  0  0  0  0  0  0  0  0  0  0
  2 37  1  0  0  0  0
  3  2  2  0  0  0  0
  3  4  1  0  0  0  0
  4  5  2  0  0  0  0
  5  6  1  0  0  0  0
  5 45  1  0  0  0  0
  6  7  1  0  0  0  0
  7 38  1  0  0  0  0
  7 46  1  0  0  0  0
  7 47  1  0  0  0  0
  8 48  1  0  0  0  0
  9  8  1  0  0  0  0
 10  9  1  0  0  0  0
 10 50  1  0  0  0  0
 11 10  2  0  0  0  0
 12 13  2  0  0  0  0
 12 11  1  0  0  0  0
 13 39  1  0  0  0  0
 14 15  1  0  0  0  0
 14 54  1  1  0  0  0
 15 16  2  0  0  0  0
 16 17  1  0  0  0  0
 16 55  1  0  0  0  0
 17 56  1  0  0  0  0
 18 57  1  0  0  0  0
 18 17  2  0  0  0  0
 19 18  1  0  0  0  0
 20 19  1  0  0  0  0
 21 20  1  0  0  0  0
 21 58  1  0  0  0  0
 22 21  2  0  0  0  0
 23 24  2  0  0  0  0
 23 22  1  0  0  0  0
 24 25  1  0  0  0  0
 25 62  1  0  0  0  0
 25 20  2  0  0  0  0
 26 14  1  0  0  0  0
 26 27  2  0  0  0  0
 27 63  1  0  0  0  0
 28 27  1  0  0  0  0
 28 64  1  0  0  0  0
 29 28  2  0  0  0  0
 30 41  2  0  0  0  0
 30 29  1  0  0  0  0
 31 30  1  0  0  0  0
 32 66  1  0  0  0  0
 32 31  1  0  0  0  0
 33 32  2  0  0  0  0
 34 33  1  0  0  0  0
 34 35  2  0  0  0  0
 35 36  1  0  0  0  0
 36 31  2  0  0  0  0
 36 70  1  0  0  0  0
 37  6  2  0  0  0  0
 37  1  9  0  0  0  0
 38  8  1  6  0  0  0
 38 14  1  0  0  0  0
 38  1  9  0  0  0  0
 39  9  2  0  0  0  0
 39  1  9  0  0  0  0
 40 19  2  0  0  0  0
 40 15  1  0  0  0  0
 40  1  9  0  0  0  0
 41 26  1  0  0  0  0
 41  1  9  0  0  0  0
 42  2  1  0  0  0  0
 43  3  1  0  0  0  0
 44  4  1  0  0  0  0
 49  8  1  0  0  0  0
 51 11  1  0  0  0  0
 52 12  1  0  0  0  0
 53 13  1  0  0  0  0
 59 22  1  0  0  0  0
 60 23  1  0  0  0  0
 61 24  1  0  0  0  0
 65 29  1  0  0  0  0
 67 33  1  0  0  0  0
 68 34  1  0  0  0  0
 69 35  1  0  0  0  0
 71  1  1  0  0  0  0
M  CHG  1   1   2
M  END
$$$$
