
 OpenBabel02052520063D

 74 83  0  0  0  0  0  0  0  0999 V2000
    0.1985   -0.1409   -0.1285 Fe  0  3  0  0  0  0  0  0  0  0  0  0
   -3.5993   -2.6622   -1.1845 C   0  0  0  0  0  0  0  0  0  0  0  0
   -4.1938   -2.8981   -0.3056 H   0  0  0  0  0  0  0  0  0  0  0  0
   -4.2293   -2.3910   -2.3975 C   0  0  0  0  0  0  0  0  0  0  0  0
   -5.3128   -2.4230   -2.4619 H   0  0  0  0  0  0  0  0  0  0  0  0
   -3.4675   -2.0734   -3.5247 C   0  0  0  0  0  0  0  0  0  0  0  0
   -3.9584   -1.8595   -4.4693 H   0  0  0  0  0  0  0  0  0  0  0  0
   -2.0747   -2.0243   -3.4341 C   0  0  0  0  0  0  0  0  0  0  0  0
   -1.4797   -1.7781   -4.3083 H   0  0  0  0  0  0  0  0  0  0  0  0
   -1.4396   -2.2814   -2.2205 C   0  0  0  0  0  0  0  0  0  0  0  0
   -0.3592   -2.2330   -2.1520 H   0  0  0  0  0  0  0  0  0  0  0  0
   -2.1997   -2.5974   -1.0845 C   0  0  0  0  0  0  0  0  0  0  0  0
   -1.5502   -2.9112    0.2064 C   0  0  0  0  0  0  0  0  0  0  0  0
   -1.9197   -4.0776    0.9034 C   0  0  0  0  0  0  0  0  0  0  0  0
   -2.6715   -4.7275    0.4705 H   0  0  0  0  0  0  0  0  0  0  0  0
   -1.2952   -4.4048    2.0976 C   0  0  0  0  0  0  0  0  0  0  0  0
   -1.5586   -5.3158    2.6267 H   0  0  0  0  0  0  0  0  0  0  0  0
   -0.3116   -3.5500    2.6025 C   0  0  0  0  0  0  0  0  0  0  0  0
    0.2024   -3.7658    3.5333 H   0  0  0  0  0  0  0  0  0  0  0  0
   -0.0092   -2.4023    1.8845 C   0  0  0  0  0  0  0  0  0  0  0  0
    0.9271   -1.3364    2.4447 C   0  0  2  0  0  0  0  0  0  0  0  0
    1.5233   -1.7624    3.2638 H   0  0  0  0  0  0  0  0  0  0  0  0
    0.0114   -0.2432    2.9809 C   0  0  0  0  0  0  0  0  0  0  0  0
   -0.3889   -0.2207    4.3120 C   0  0  0  0  0  0  0  0  0  0  0  0
    0.0385   -0.9170    5.0264 H   0  0  0  0  0  0  0  0  0  0  0  0
   -1.3656    0.7028    4.6902 C   0  0  0  0  0  0  0  0  0  0  0  0
   -1.7140    0.7475    5.7177 H   0  0  0  0  0  0  0  0  0  0  0  0
   -1.8709    1.5753    3.7340 C   0  0  0  0  0  0  0  0  0  0  0  0
   -2.6114    2.3243    3.9920 H   0  0  0  0  0  0  0  0  0  0  0  0
   -1.3848    1.5275    2.4165 C   0  0  0  0  0  0  0  0  0  0  0  0
   -1.8462    2.5232    1.4225 C   0  0  0  0  0  0  0  0  0  0  0  0
   -0.9198    3.3684    0.7995 C   0  0  0  0  0  0  0  0  0  0  0  0
    0.1313    3.2792    1.0485 H   0  0  0  0  0  0  0  0  0  0  0  0
   -1.3498    4.3239   -0.1190 C   0  0  0  0  0  0  0  0  0  0  0  0
   -0.6264    4.9811   -0.5935 H   0  0  0  0  0  0  0  0  0  0  0  0
   -2.7080    4.4378   -0.4250 C   0  0  0  0  0  0  0  0  0  0  0  0
   -3.0424    5.1718   -1.1518 H   0  0  0  0  0  0  0  0  0  0  0  0
   -3.6370    3.6051    0.2033 C   0  0  0  0  0  0  0  0  0  0  0  0
   -4.6922    3.6873   -0.0382 H   0  0  0  0  0  0  0  0  0  0  0  0
   -3.2106    2.6580    1.1336 C   0  0  0  0  0  0  0  0  0  0  0  0
   -3.9308    2.0013    1.6143 H   0  0  0  0  0  0  0  0  0  0  0  0
    2.6128    0.3544    1.7634 C   0  0  0  0  0  0  0  0  0  0  0  0
    3.6131    0.0295    2.0738 H   0  0  0  0  0  0  0  0  0  0  0  0
    2.1452    0.8357    2.6270 H   0  0  0  0  0  0  0  0  0  0  0  0
    2.7131    1.3739    0.6483 C   0  0  0  0  0  0  0  0  0  0  0  0
    3.8411    2.1730    0.4624 C   0  0  0  0  0  0  0  0  0  0  0  0
    4.7108    2.0405    1.0978 H   0  0  0  0  0  0  0  0  0  0  0  0
    3.8349    3.1189   -0.5605 C   0  0  0  0  0  0  0  0  0  0  0  0
    4.7048    3.7460   -0.7301 H   0  0  0  0  0  0  0  0  0  0  0  0
    2.7039    3.2401   -1.3722 C   0  0  0  0  0  0  0  0  0  0  0  0
    2.6649    3.9570   -2.1850 H   0  0  0  0  0  0  0  0  0  0  0  0
    1.6212    2.4040   -1.1288 C   0  0  0  0  0  0  0  0  0  0  0  0
    0.7149    2.4356   -1.7234 H   0  0  0  0  0  0  0  0  0  0  0  0
    2.6316   -1.8860    0.7544 C   0  0  0  0  0  0  0  0  0  0  0  0
    1.9558   -2.6988    0.4786 H   0  0  0  0  0  0  0  0  0  0  0  0
    3.3302   -2.2664    1.5138 H   0  0  0  0  0  0  0  0  0  0  0  0
    3.3739   -1.4123   -0.4632 C   0  0  0  0  0  0  0  0  0  0  0  0
    4.7660   -1.4426   -0.5470 C   0  0  0  0  0  0  0  0  0  0  0  0
    5.3435   -1.8046    0.3009 H   0  0  0  0  0  0  0  0  0  0  0  0
    5.4217   -1.0204   -1.7063 C   0  0  0  0  0  0  0  0  0  0  0  0
    6.5054   -1.0510   -1.7600 H   0  0  0  0  0  0  0  0  0  0  0  0
    4.6726   -0.5678   -2.7985 C   0  0  0  0  0  0  0  0  0  0  0  0
    5.1774   -0.2419   -3.7035 H   0  0  0  0  0  0  0  0  0  0  0  0
    3.2822   -0.5318   -2.7364 C   0  0  0  0  0  0  0  0  0  0  0  0
    2.6830   -0.1800   -3.5704 H   0  0  0  0  0  0  0  0  0  0  0  0
    2.6173   -0.9492   -1.5692 C   0  0  0  0  0  0  0  0  0  0  0  0
   -0.6025   -2.0854    0.7125 N   0  0  0  0  0  0  0  0  0  0  0  0
   -0.4682    0.6034    2.0498 N   0  0  0  0  0  0  0  0  0  0  0  0
    1.7849   -0.8094    1.3613 N   0  0  2  0  0  0  0  0  0  0  0  0
    1.6279    1.5017   -0.1335 N   0  0  0  0  0  0  0  0  0  0  0  0
    1.2902   -0.8717   -1.4909 O   0  0  0  0  0  0  0  0  0  0  0  0
   -1.2560    0.6529   -1.0576 N   0  0  0  0  0  0  0  0  0  0  0  0
   -1.9574    1.1046   -1.9182 C   0  0  0  0  0  0  0  0  0  0  0  0
   -2.8846    1.7031   -3.0695 S   0  0  0  0  0  0  0  0  0  0  0  0
  2 12  1  0  0  0  0
  2  3  1  0  0  0  0
  4  2  2  0  0  0  0
  5  4  1  0  0  0  0
  6  8  2  0  0  0  0
  6  4  1  0  0  0  0
  7  6  1  0  0  0  0
  8 10  1  0  0  0  0
  9  8  1  0  0  0  0
 10 11  1  0  0  0  0
 10 12  2  0  0  0  0
 12 13  1  0  0  0  0
 13 67  1  0  0  0  0
 13 14  2  0  0  0  0
 14 16  1  0  0  0  0
 15 14  1  0  0  0  0
 16 18  2  0  0  0  0
 16 17  1  0  0  0  0
 18 19  1  0  0  0  0
 20 21  1  0  0  0  0
 20 18  1  0  0  0  0
 21 23  1  0  0  0  0
 21 22  1  1  0  0  0
 23 24  2  0  0  0  0
 24 26  1  0  0  0  0
 24 25  1  0  0  0  0
 26 27  1  0  0  0  0
 28 29  1  0  0  0  0
 28 26  2  0  0  0  0
 30 28  1  0  0  0  0
 31 30  1  0  0  0  0
 32 33  1  0  0  0  0
 32 31  1  0  0  0  0
 34 32  2  0  0  0  0
 35 34  1  0  0  0  0
 36 34  1  0  0  0  0
 36 38  2  0  0  0  0
 37 36  1  0  0  0  0
 38 40  1  0  0  0  0
 39 38  1  0  0  0  0
 40 31  2  0  0  0  0
 40 41  1  0  0  0  0
 42 43  1  0  0  0  0
 42 44  1  0  0  0  0
 45 42  1  0  0  0  0
 46 45  1  0  0  0  0
 46 47  1  0  0  0  0
 48 46  2  0  0  0  0
 49 48  1  0  0  0  0
 50 52  2  0  0  0  0
 50 48  1  0  0  0  0
 51 50  1  0  0  0  0
 52 70  1  0  0  0  0
 53 52  1  0  0  0  0
 54 56  1  0  0  0  0
 55 54  1  0  0  0  0
 57 54  1  0  0  0  0
 58 57  1  0  0  0  0
 58 59  1  0  0  0  0
 60 58  2  0  0  0  0
 61 60  1  0  0  0  0
 62 64  2  0  0  0  0
 62 60  1  0  0  0  0
 63 62  1  0  0  0  0
 64 66  1  0  0  0  0
 65 64  1  0  0  0  0
 66 71  1  0  0  0  0
 66 57  2  0  0  0  0
 67 20  2  0  0  0  0
 67  1  9  0  0  0  0
 68 30  2  0  0  0  0
 68 23  1  0  0  0  0
 68  1  9  0  0  0  0
 69 54  1  6  0  0  0
 69 42  1  0  0  0  0
 69 21  1  0  0  0  0
 69  1  9  0  0  0  0
 70 45  2  0  0  0  0
 70  1  9  0  0  0  0
 71  1  1  0  0  0  0
 72  1  1  0  0  0  0
 73 72  2  0  0  0  0
 74 73  2  0  0  0  0
M  CHG  1   1   1
M  END
$$$$
