
 OpenBabel02052520063D

 72 81  0  0  0  0  0  0  0  0999 V2000
    0.0953   -0.1017   -0.2785 Fe  0  3  0  0  0  0  0  0  0  0  0  0
   -3.8215   -2.3311   -1.4872 C   0  0  0  0  0  0  0  0  0  0  0  0
   -4.5481   -2.4047   -0.6823 H   0  0  0  0  0  0  0  0  0  0  0  0
   -4.2552   -2.1667   -2.8007 C   0  0  0  0  0  0  0  0  0  0  0  0
   -5.3188   -2.1250   -3.0163 H   0  0  0  0  0  0  0  0  0  0  0  0
   -3.3227   -2.0548   -3.8360 C   0  0  0  0  0  0  0  0  0  0  0  0
   -3.6617   -1.9315   -4.8605 H   0  0  0  0  0  0  0  0  0  0  0  0
   -1.9570   -2.1045   -3.5516 C   0  0  0  0  0  0  0  0  0  0  0  0
   -1.2285   -2.0245   -4.3529 H   0  0  0  0  0  0  0  0  0  0  0  0
   -1.5169   -2.2565   -2.2380 C   0  0  0  0  0  0  0  0  0  0  0  0
   -0.4549   -2.2980   -2.0258 H   0  0  0  0  0  0  0  0  0  0  0  0
   -2.4472   -2.3659   -1.1946 C   0  0  0  0  0  0  0  0  0  0  0  0
   -2.0145   -2.5495    0.2080 C   0  0  0  0  0  0  0  0  0  0  0  0
   -2.6088   -3.5499    1.0014 C   0  0  0  0  0  0  0  0  0  0  0  0
   -3.3581   -4.1939    0.5556 H   0  0  0  0  0  0  0  0  0  0  0  0
   -2.2083   -3.7256    2.3175 C   0  0  0  0  0  0  0  0  0  0  0  0
   -2.6469   -4.5098    2.9272 H   0  0  0  0  0  0  0  0  0  0  0  0
   -1.2272   -2.8817    2.8464 C   0  0  0  0  0  0  0  0  0  0  0  0
   -0.8924   -2.9771    3.8740 H   0  0  0  0  0  0  0  0  0  0  0  0
   -0.6908   -1.9034    2.0224 C   0  0  0  0  0  0  0  0  0  0  0  0
    0.2575   -0.8336    2.5592 C   0  0  2  0  0  0  0  0  0  0  0  0
    0.6411   -1.1404    3.5424 H   0  0  0  0  0  0  0  0  0  0  0  0
   -0.6002    0.4188    2.6997 C   0  0  0  0  0  0  0  0  0  0  0  0
   -1.1995    0.7637    3.9051 C   0  0  0  0  0  0  0  0  0  0  0  0
   -0.9677    0.2139    4.8117 H   0  0  0  0  0  0  0  0  0  0  0  0
   -2.1192    1.8152    3.9056 C   0  0  0  0  0  0  0  0  0  0  0  0
   -2.6162    2.1117    4.8244 H   0  0  0  0  0  0  0  0  0  0  0  0
   -2.3801    2.4818    2.7145 C   0  0  0  0  0  0  0  0  0  0  0  0
   -3.0760    3.3125    2.6759 H   0  0  0  0  0  0  0  0  0  0  0  0
   -1.7041    2.1078    1.5407 C   0  0  0  0  0  0  0  0  0  0  0  0
   -1.9212    2.8635    0.2845 C   0  0  0  0  0  0  0  0  0  0  0  0
   -0.8527    3.5327   -0.3237 C   0  0  0  0  0  0  0  0  0  0  0  0
    0.1321    3.4806    0.1267 H   0  0  0  0  0  0  0  0  0  0  0  0
   -1.0589    4.2687   -1.4882 C   0  0  0  0  0  0  0  0  0  0  0  0
   -0.2272    4.7945   -1.9492 H   0  0  0  0  0  0  0  0  0  0  0  0
   -2.3333    4.3351   -2.0570 C   0  0  0  0  0  0  0  0  0  0  0  0
   -2.4934    4.9040   -2.9682 H   0  0  0  0  0  0  0  0  0  0  0  0
   -3.4042    3.6779   -1.4471 C   0  0  0  0  0  0  0  0  0  0  0  0
   -4.3964    3.7293   -1.8855 H   0  0  0  0  0  0  0  0  0  0  0  0
   -3.2031    2.9542   -0.2718 C   0  0  0  0  0  0  0  0  0  0  0  0
   -4.0338    2.4369    0.2009 H   0  0  0  0  0  0  0  0  0  0  0  0
    2.2277    0.5402    1.9192 C   0  0  0  0  0  0  0  0  0  0  0  0
    3.1243    0.2016    2.4524 H   0  0  0  0  0  0  0  0  0  0  0  0
    1.6872    1.2150    2.5896 H   0  0  0  0  0  0  0  0  0  0  0  0
    2.6143    1.3157    0.6761 C   0  0  0  0  0  0  0  0  0  0  0  0
    3.8351    1.9773    0.5444 C   0  0  0  0  0  0  0  0  0  0  0  0
    4.5787    1.9085    1.3318 H   0  0  0  0  0  0  0  0  0  0  0  0
    4.0833    2.7029   -0.6194 C   0  0  0  0  0  0  0  0  0  0  0  0
    5.0301    3.2184   -0.7489 H   0  0  0  0  0  0  0  0  0  0  0  0
    3.1094    2.7486   -1.6211 C   0  0  0  0  0  0  0  0  0  0  0  0
    3.2730    3.2952   -2.5434 H   0  0  0  0  0  0  0  0  0  0  0  0
    1.9195    2.0595   -1.4199 C   0  0  0  0  0  0  0  0  0  0  0  0
    1.1146    2.0360   -2.1470 H   0  0  0  0  0  0  0  0  0  0  0  0
    2.1435   -1.8479    1.3418 C   0  0  0  0  0  0  0  0  0  0  0  0
    1.4279   -2.6372    1.0983 H   0  0  0  0  0  0  0  0  0  0  0  0
    2.6639   -2.1355    2.2672 H   0  0  0  0  0  0  0  0  0  0  0  0
    3.1192   -1.6896    0.2094 C   0  0  0  0  0  0  0  0  0  0  0  0
    4.4923   -1.8606    0.3829 C   0  0  0  0  0  0  0  0  0  0  0  0
    4.8796   -2.0952    1.3722 H   0  0  0  0  0  0  0  0  0  0  0  0
    5.3709   -1.7413   -0.6973 C   0  0  0  0  0  0  0  0  0  0  0  0
    6.4373   -1.8787   -0.5485 H   0  0  0  0  0  0  0  0  0  0  0  0
    4.8664   -1.4541   -1.9711 C   0  0  0  0  0  0  0  0  0  0  0  0
    5.5448   -1.3643   -2.8148 H   0  0  0  0  0  0  0  0  0  0  0  0
    3.4992   -1.2830   -2.1667 C   0  0  0  0  0  0  0  0  0  0  0  0
    3.0866   -1.0543   -3.1442 H   0  0  0  0  0  0  0  0  0  0  0  0
    2.6092   -1.3921   -1.0811 C   0  0  0  0  0  0  0  0  0  0  0  0
   -1.0588   -1.7459    0.7316 N   0  0  0  0  0  0  0  0  0  0  0  0
   -0.8353    1.0732    1.5461 N   0  0  0  0  0  0  0  0  0  0  0  0
    1.3472   -0.6058    1.5875 N   0  0  2  0  0  0  0  0  0  0  0  0
    1.6849    1.3716   -0.2907 N   0  0  0  0  0  0  0  0  0  0  0  0
    1.3105   -1.1786   -1.2635 O   0  0  0  0  0  0  0  0  0  0  0  0
   -0.9373    0.6558   -1.4972 F   0  0  0  0  0  0  0  0  0  0  0  0
  2 12  1  0  0  0  0
  2  3  1  0  0  0  0
  4  2  2  0  0  0  0
  5  4  1  0  0  0  0
  6  8  2  0  0  0  0
  6  4  1  0  0  0  0
  7  6  1  0  0  0  0
  8 10  1  0  0  0  0
  9  8  1  0  0  0  0
 10 11  1  0  0  0  0
 10 12  2  0  0  0  0
 12 13  1  0  0  0  0
 13 67  1  0  0  0  0
 13 14  2  0  0  0  0
 14 16  1  0  0  0  0
 15 14  1  0  0  0  0
 16 18  2  0  0  0  0
 16 17  1  0  0  0  0
 18 19  1  0  0  0  0
 20 21  1  0  0  0  0
 20 18  1  0  0  0  0
 21 23  1  0  0  0  0
 21 22  1  1  0  0  0
 23 24  2  0  0  0  0
 24 26  1  0  0  0  0
 24 25  1  0  0  0  0
 26 27  1  0  0  0  0
 28 26  2  0  0  0  0
 29 28  1  0  0  0  0
 30 68  2  0  0  0  0
 30 28  1  0  0  0  0
 31 30  1  0  0  0  0
 32 33  1  0  0  0  0
 32 31  1  0  0  0  0
 34 32  2  0  0  0  0
 35 34  1  0  0  0  0
 36 34  1  0  0  0  0
 36 38  2  0  0  0  0
 37 36  1  0  0  0  0
 38 40  1  0  0  0  0
 39 38  1  0  0  0  0
 40 41  1  0  0  0  0
 40 31  2  0  0  0  0
 42 43  1  0  0  0  0
 42 44  1  0  0  0  0
 45 42  1  0  0  0  0
 46 45  1  0  0  0  0
 46 47  1  0  0  0  0
 48 46  2  0  0  0  0
 49 48  1  0  0  0  0
 50 52  2  0  0  0  0
 50 48  1  0  0  0  0
 51 50  1  0  0  0  0
 52 70  1  0  0  0  0
 53 52  1  0  0  0  0
 54 56  1  0  0  0  0
 55 54  1  0  0  0  0
 57 58  1  0  0  0  0
 57 54  1  0  0  0  0
 58 59  1  0  0  0  0
 60 61  1  0  0  0  0
 60 58  2  0  0  0  0
 62 60  1  0  0  0  0
 63 62  1  0  0  0  0
 64 62  2  0  0  0  0
 64 66  1  0  0  0  0
 65 64  1  0  0  0  0
 66 57  2  0  0  0  0
 67 20  2  0  0  0  0
 67  1  9  0  0  0  0
 68 23  1  0  0  0  0
 68  1  9  0  0  0  0
 69 54  1  6  0  0  0
 69 42  1  0  0  0  0
 69 21  1  0  0  0  0
 69  1  9  0  0  0  0
 70 45  2  0  0  0  0
 70  1  9  0  0  0  0
 71 66  1  0  0  0  0
 71  1  1  0  0  0  0
 72  1  1  0  0  0  0
M  CHG  1   1   1
M  END
$$$$
