
 OpenBabel02052520063D

 77 86  0  0  0  0  0  0  0  0999 V2000
    0.2478   -0.0896   -0.1757 Fe  0  3  0  0  0  0  0  0  0  0  0  0
   -3.6506   -2.7975   -1.0238 C   0  0  0  0  0  0  0  0  0  0  0  0
   -4.3427   -2.8462   -0.1871 H   0  0  0  0  0  0  0  0  0  0  0  0
   -4.1376   -2.8210   -2.3304 C   0  0  0  0  0  0  0  0  0  0  0  0
   -5.2067   -2.8987   -2.5070 H   0  0  0  0  0  0  0  0  0  0  0  0
   -3.2485   -2.7596   -3.4087 C   0  0  0  0  0  0  0  0  0  0  0  0
   -3.6256   -2.8032   -4.4272 H   0  0  0  0  0  0  0  0  0  0  0  0
   -1.8746   -2.6576   -3.1720 C   0  0  0  0  0  0  0  0  0  0  0  0
   -1.1775   -2.6149   -4.0041 H   0  0  0  0  0  0  0  0  0  0  0  0
   -1.3834   -2.6224   -1.8662 C   0  0  0  0  0  0  0  0  0  0  0  0
   -0.3162   -2.5295   -1.6901 H   0  0  0  0  0  0  0  0  0  0  0  0
   -2.2708   -2.6941   -0.7822 C   0  0  0  0  0  0  0  0  0  0  0  0
   -1.7587   -2.7210    0.6098 C   0  0  0  0  0  0  0  0  0  0  0  0
   -2.2156   -3.7056    1.5038 C   0  0  0  0  0  0  0  0  0  0  0  0
   -2.9468   -4.4309    1.1649 H   0  0  0  0  0  0  0  0  0  0  0  0
   -1.6921   -3.7651    2.7888 C   0  0  0  0  0  0  0  0  0  0  0  0
   -2.0195   -4.5333    3.4830 H   0  0  0  0  0  0  0  0  0  0  0  0
   -0.7234   -2.8338    3.1670 C   0  0  0  0  0  0  0  0  0  0  0  0
   -0.2804   -2.8520    4.1576 H   0  0  0  0  0  0  0  0  0  0  0  0
   -0.3327   -1.8738    2.2399 C   0  0  0  0  0  0  0  0  0  0  0  0
    0.6241   -0.7444    2.6323 C   0  0  2  0  0  0  0  0  0  0  0  0
    1.1229   -1.0118    3.5759 H   0  0  0  0  0  0  0  0  0  0  0  0
   -0.2650    0.4744    2.8576 C   0  0  0  0  0  0  0  0  0  0  0  0
   -0.7114    0.8155    4.1318 C   0  0  0  0  0  0  0  0  0  0  0  0
   -0.3411    0.2835    5.0023 H   0  0  0  0  0  0  0  0  0  0  0  0
   -1.6503    1.8401    4.2532 C   0  0  0  0  0  0  0  0  0  0  0  0
   -2.0248    2.1329    5.2295 H   0  0  0  0  0  0  0  0  0  0  0  0
   -2.0885    2.4893    3.1041 C   0  0  0  0  0  0  0  0  0  0  0  0
   -2.8011    3.3051    3.1580 H   0  0  0  0  0  0  0  0  0  0  0  0
   -1.5670    2.1142    1.8560 C   0  0  0  0  0  0  0  0  0  0  0  0
   -1.9754    2.8431    0.6301 C   0  0  0  0  0  0  0  0  0  0  0  0
   -1.0050    3.3992   -0.2132 C   0  0  0  0  0  0  0  0  0  0  0  0
    0.0417    3.2756    0.0349 H   0  0  0  0  0  0  0  0  0  0  0  0
   -1.3845    4.0984   -1.3578 C   0  0  0  0  0  0  0  0  0  0  0  0
   -0.6242    4.5363   -1.9985 H   0  0  0  0  0  0  0  0  0  0  0  0
   -2.7382    4.2435   -1.6740 C   0  0  0  0  0  0  0  0  0  0  0  0
   -3.0349    4.7937   -2.5626 H   0  0  0  0  0  0  0  0  0  0  0  0
   -3.7119    3.6975   -0.8315 C   0  0  0  0  0  0  0  0  0  0  0  0
   -4.7659    3.8188   -1.0662 H   0  0  0  0  0  0  0  0  0  0  0  0
   -3.3332    3.0079    0.3215 C   0  0  0  0  0  0  0  0  0  0  0  0
   -4.0895    2.5806    0.9746 H   0  0  0  0  0  0  0  0  0  0  0  0
    2.4678    0.6816    1.7716 C   0  0  0  0  0  0  0  0  0  0  0  0
    3.3980    0.3921    2.2769 H   0  0  0  0  0  0  0  0  0  0  0  0
    1.9433    1.3813    2.4291 H   0  0  0  0  0  0  0  0  0  0  0  0
    2.7811    1.3965    0.4693 C   0  0  0  0  0  0  0  0  0  0  0  0
    4.0479    1.9116    0.1916 C   0  0  0  0  0  0  0  0  0  0  0  0
    4.8591    1.7645    0.8966 H   0  0  0  0  0  0  0  0  0  0  0  0
    4.2591    2.5711   -1.0164 C   0  0  0  0  0  0  0  0  0  0  0  0
    5.2415    2.9632   -1.2611 H   0  0  0  0  0  0  0  0  0  0  0  0
    3.1974    2.7021   -1.9147 C   0  0  0  0  0  0  0  0  0  0  0  0
    3.3242    3.1962   -2.8720 H   0  0  0  0  0  0  0  0  0  0  0  0
    1.9662    2.1629   -1.5614 C   0  0  0  0  0  0  0  0  0  0  0  0
    1.1047    2.2169   -2.2203 H   0  0  0  0  0  0  0  0  0  0  0  0
    2.4052   -1.7187    1.2303 C   0  0  0  0  0  0  0  0  0  0  0  0
    1.6899   -2.5220    1.0381 H   0  0  0  0  0  0  0  0  0  0  0  0
    3.0048   -1.9948    2.1110 H   0  0  0  0  0  0  0  0  0  0  0  0
    3.2841   -1.5217    0.0274 C   0  0  0  0  0  0  0  0  0  0  0  0
    4.6775   -1.5845    0.1208 C   0  0  0  0  0  0  0  0  0  0  0  0
    5.1348   -1.7837    1.0886 H   0  0  0  0  0  0  0  0  0  0  0  0
    5.4827   -1.3936   -1.0013 C   0  0  0  0  0  0  0  0  0  0  0  0
    6.5638   -1.4472   -0.9169 H   0  0  0  0  0  0  0  0  0  0  0  0
    4.8769   -1.1453   -2.2388 C   0  0  0  0  0  0  0  0  0  0  0  0
    5.4930   -0.9980   -3.1223 H   0  0  0  0  0  0  0  0  0  0  0  0
    3.4907   -1.0847   -2.3534 C   0  0  0  0  0  0  0  0  0  0  0  0
    3.0111   -0.8889   -3.3079 H   0  0  0  0  0  0  0  0  0  0  0  0
    2.6662   -1.2703   -1.2271 C   0  0  0  0  0  0  0  0  0  0  0  0
   -0.8375   -1.8099    0.9911 N   0  0  0  0  0  0  0  0  0  0  0  0
   -0.6744    1.1076    1.7424 N   0  0  0  0  0  0  0  0  0  0  0  0
    1.5969   -0.4971    1.5506 N   0  0  2  0  0  0  0  0  0  0  0  0
    1.7567    1.5329   -0.3945 N   0  0  0  0  0  0  0  0  0  0  0  0
   -1.3282    0.5303   -1.4777 N   0  0  0  0  0  0  0  0  0  0  0  0
   -2.2146    0.7189   -2.1956 C   0  0  0  0  0  0  0  0  0  0  0  0
   -3.3352    0.9257   -3.1005 C   0  0  0  0  0  0  0  0  0  0  0  0
   -3.4992    0.0116   -3.6786 H   0  0  0  0  0  0  0  0  0  0  0  0
   -3.1266    1.7638   -3.7717 H   0  0  0  0  0  0  0  0  0  0  0  0
   -4.2331    1.1546   -2.5197 H   0  0  0  0  0  0  0  0  0  0  0  0
    1.3415   -1.1761   -1.3314 O   0  0  0  0  0  0  0  0  0  0  0  0
  2 12  1  0  0  0  0
  2  3  1  0  0  0  0
  4  2  2  0  0  0  0
  5  4  1  0  0  0  0
  6  8  2  0  0  0  0
  6  4  1  0  0  0  0
  7  6  1  0  0  0  0
  8 10  1  0  0  0  0
  9  8  1  0  0  0  0
 10 11  1  0  0  0  0
 10 12  2  0  0  0  0
 12 13  1  0  0  0  0
 13 67  1  0  0  0  0
 13 14  2  0  0  0  0
 14 16  1  0  0  0  0
 15 14  1  0  0  0  0
 16 18  2  0  0  0  0
 16 17  1  0  0  0  0
 18 19  1  0  0  0  0
 20 21  1  0  0  0  0
 20 18  1  0  0  0  0
 21 23  1  0  0  0  0
 21 22  1  1  0  0  0
 23 24  2  0  0  0  0
 24 26  1  0  0  0  0
 24 25  1  0  0  0  0
 26 27  1  0  0  0  0
 28 29  1  0  0  0  0
 28 26  2  0  0  0  0
 30 28  1  0  0  0  0
 31 30  1  0  0  0  0
 32 33  1  0  0  0  0
 32 31  1  0  0  0  0
 34 32  2  0  0  0  0
 35 34  1  0  0  0  0
 36 34  1  0  0  0  0
 36 38  2  0  0  0  0
 37 36  1  0  0  0  0
 38 40  1  0  0  0  0
 39 38  1  0  0  0  0
 40 31  2  0  0  0  0
 40 41  1  0  0  0  0
 42 43  1  0  0  0  0
 42 44  1  0  0  0  0
 45 42  1  0  0  0  0
 46 45  1  0  0  0  0
 46 47  1  0  0  0  0
 48 46  2  0  0  0  0
 49 48  1  0  0  0  0
 50 52  2  0  0  0  0
 50 48  1  0  0  0  0
 51 50  1  0  0  0  0
 52 70  1  0  0  0  0
 53 52  1  0  0  0  0
 54 56  1  0  0  0  0
 55 54  1  0  0  0  0
 57 58  1  0  0  0  0
 57 54  1  0  0  0  0
 58 59  1  0  0  0  0
 60 61  1  0  0  0  0
 60 58  2  0  0  0  0
 62 60  1  0  0  0  0
 63 62  1  0  0  0  0
 64 62  2  0  0  0  0
 64 66  1  0  0  0  0
 65 64  1  0  0  0  0
 66 57  2  0  0  0  0
 67 20  2  0  0  0  0
 67  1  9  0  0  0  0
 68 30  2  0  0  0  0
 68 23  1  0  0  0  0
 68  1  9  0  0  0  0
 69 54  1  6  0  0  0
 69 42  1  0  0  0  0
 69 21  1  0  0  0  0
 69  1  9  0  0  0  0
 70 45  2  0  0  0  0
 70  1  9  0  0  0  0
 71  1  9  0  0  0  0
 72 71  3  0  0  0  0
 73 76  1  0  0  0  0
 73 72  1  0  0  0  0
 74 73  1  0  0  0  0
 75 73  1  0  0  0  0
 77 66  1  0  0  0  0
 77  1  1  0  0  0  0
M  CHG  1   1   1
M  END
$$$$
