
 OpenBabel02052520063D

 73 82  0  0  0  0  0  0  0  0999 V2000
    0.1075   -0.1270   -0.3157 Fe  0  3  0  0  0  0  0  0  0  0  0  0
   -3.8381   -2.4475   -1.3838 C   0  0  0  0  0  0  0  0  0  0  0  0
   -4.5830   -2.4297   -0.5923 H   0  0  0  0  0  0  0  0  0  0  0  0
   -4.2419   -2.4234   -2.7170 C   0  0  0  0  0  0  0  0  0  0  0  0
   -5.3002   -2.3980   -2.9600 H   0  0  0  0  0  0  0  0  0  0  0  0
   -3.2856   -2.4346   -3.7366 C   0  0  0  0  0  0  0  0  0  0  0  0
   -3.6007   -2.4232   -4.7761 H   0  0  0  0  0  0  0  0  0  0  0  0
   -1.9270   -2.4633   -3.4170 C   0  0  0  0  0  0  0  0  0  0  0  0
   -1.1800   -2.4751   -4.2050 H   0  0  0  0  0  0  0  0  0  0  0  0
   -1.5170   -2.4729   -2.0852 C   0  0  0  0  0  0  0  0  0  0  0  0
   -0.4602   -2.4909   -1.8457 H   0  0  0  0  0  0  0  0  0  0  0  0
   -2.4708   -2.4619   -1.0577 C   0  0  0  0  0  0  0  0  0  0  0  0
   -2.0699   -2.5078    0.3657 C   0  0  0  0  0  0  0  0  0  0  0  0
   -2.6968   -3.4212    1.2359 C   0  0  0  0  0  0  0  0  0  0  0  0
   -3.4476   -4.0927    0.8358 H   0  0  0  0  0  0  0  0  0  0  0  0
   -2.3240   -3.4825    2.5701 C   0  0  0  0  0  0  0  0  0  0  0  0
   -2.7877   -4.2001    3.2402 H   0  0  0  0  0  0  0  0  0  0  0  0
   -1.3340   -2.6132    3.0362 C   0  0  0  0  0  0  0  0  0  0  0  0
   -1.0142   -2.6234    4.0731 H   0  0  0  0  0  0  0  0  0  0  0  0
   -0.7650   -1.7243    2.1356 C   0  0  0  0  0  0  0  0  0  0  0  0
    0.2072   -0.6411    2.5959 C   0  0  2  0  0  0  0  0  0  0  0  0
    0.5891   -0.8929    3.5956 H   0  0  0  0  0  0  0  0  0  0  0  0
   -0.6163    0.6393    2.6651 C   0  0  0  0  0  0  0  0  0  0  0  0
   -1.1838    1.0786    3.8573 C   0  0  0  0  0  0  0  0  0  0  0  0
   -0.9578    0.5742    4.7914 H   0  0  0  0  0  0  0  0  0  0  0  0
   -2.0584    2.1654    3.8118 C   0  0  0  0  0  0  0  0  0  0  0  0
   -2.5265    2.5350    4.7192 H   0  0  0  0  0  0  0  0  0  0  0  0
   -2.3125    2.7734    2.5869 C   0  0  0  0  0  0  0  0  0  0  0  0
   -2.9743    3.6291    2.5100 H   0  0  0  0  0  0  0  0  0  0  0  0
   -1.6738    2.2974    1.4314 C   0  0  0  0  0  0  0  0  0  0  0  0
   -1.8893    2.9705    0.1263 C   0  0  0  0  0  0  0  0  0  0  0  0
   -0.8072    3.5393   -0.5594 C   0  0  0  0  0  0  0  0  0  0  0  0
    0.1850    3.4778   -0.1278 H   0  0  0  0  0  0  0  0  0  0  0  0
   -1.0081    4.1722   -1.7844 C   0  0  0  0  0  0  0  0  0  0  0  0
   -0.1651    4.6151   -2.3069 H   0  0  0  0  0  0  0  0  0  0  0  0
   -2.2891    4.2345   -2.3397 C   0  0  0  0  0  0  0  0  0  0  0  0
   -2.4434    4.7197   -3.2989 H   0  0  0  0  0  0  0  0  0  0  0  0
   -3.3729    3.6752   -1.6582 C   0  0  0  0  0  0  0  0  0  0  0  0
   -4.3697    3.7216   -2.0865 H   0  0  0  0  0  0  0  0  0  0  0  0
   -3.1778    3.0548   -0.4220 C   0  0  0  0  0  0  0  0  0  0  0  0
   -4.0185    2.6153    0.1083 H   0  0  0  0  0  0  0  0  0  0  0  0
    2.2073    0.6396    1.8746 C   0  0  0  0  0  0  0  0  0  0  0  0
    3.0852    0.3157    2.4466 H   0  0  0  0  0  0  0  0  0  0  0  0
    1.6767    1.3767    2.4844 H   0  0  0  0  0  0  0  0  0  0  0  0
    2.6364    1.3094    0.5856 C   0  0  0  0  0  0  0  0  0  0  0  0
    3.8848    1.9103    0.4246 C   0  0  0  0  0  0  0  0  0  0  0  0
    4.6164    1.8667    1.2248 H   0  0  0  0  0  0  0  0  0  0  0  0
    4.1773    2.5369   -0.7852 C   0  0  0  0  0  0  0  0  0  0  0  0
    5.1466    3.0017   -0.9384 H   0  0  0  0  0  0  0  0  0  0  0  0
    3.2186    2.5456   -1.8023 C   0  0  0  0  0  0  0  0  0  0  0  0
    3.4171    3.0118   -2.7613 H   0  0  0  0  0  0  0  0  0  0  0  0
    1.9995    1.9205   -1.5690 C   0  0  0  0  0  0  0  0  0  0  0  0
    1.2078    1.8639   -2.3088 H   0  0  0  0  0  0  0  0  0  0  0  0
    2.0721   -1.7788    1.4628 C   0  0  0  0  0  0  0  0  0  0  0  0
    1.3429   -2.5640    1.2499 H   0  0  0  0  0  0  0  0  0  0  0  0
    2.5617   -2.0166    2.4187 H   0  0  0  0  0  0  0  0  0  0  0  0
    3.0789   -1.7088    0.3502 C   0  0  0  0  0  0  0  0  0  0  0  0
    4.4478   -1.8654    0.5739 C   0  0  0  0  0  0  0  0  0  0  0  0
    4.8061   -2.0338    1.5875 H   0  0  0  0  0  0  0  0  0  0  0  0
    5.3559   -1.8132   -0.4855 C   0  0  0  0  0  0  0  0  0  0  0  0
    6.4181   -1.9387   -0.2998 H   0  0  0  0  0  0  0  0  0  0  0  0
    4.8845   -1.6087   -1.7875 C   0  0  0  0  0  0  0  0  0  0  0  0
    5.5852   -1.5708   -2.6170 H   0  0  0  0  0  0  0  0  0  0  0  0
    3.5225   -1.4537   -2.0318 C   0  0  0  0  0  0  0  0  0  0  0  0
    3.1381   -1.2889   -3.0334 H   0  0  0  0  0  0  0  0  0  0  0  0
    2.6031   -1.4973   -0.9682 C   0  0  0  0  0  0  0  0  0  0  0  0
   -1.1102   -1.6726    0.8306 N   0  0  0  0  0  0  0  0  0  0  0  0
   -0.8457    1.2326    1.4793 N   0  0  0  0  0  0  0  0  0  0  0  0
    1.2990   -0.5031    1.6112 N   0  0  2  0  0  0  0  0  0  0  0  0
    1.7199    1.3298   -0.3955 N   0  0  0  0  0  0  0  0  0  0  0  0
    1.3050   -1.3028   -1.1963 O   0  0  0  0  0  0  0  0  0  0  0  0
   -0.9457    0.5165   -1.6399 O   0  0  0  0  0  0  0  0  0  0  0  0
   -1.6772    1.1388   -1.5047 H   0  0  0  0  0  0  0  0  0  0  0  0
  2 12  1  0  0  0  0
  2  3  1  0  0  0  0
  4  2  2  0  0  0  0
  5  4  1  0  0  0  0
  6  8  2  0  0  0  0
  6  4  1  0  0  0  0
  7  6  1  0  0  0  0
  8 10  1  0  0  0  0
  9  8  1  0  0  0  0
 10 11  1  0  0  0  0
 10 12  2  0  0  0  0
 12 13  1  0  0  0  0
 13 67  1  0  0  0  0
 13 14  2  0  0  0  0
 14 16  1  0  0  0  0
 15 14  1  0  0  0  0
 16 18  2  0  0  0  0
 16 17  1  0  0  0  0
 18 19  1  0  0  0  0
 20 21  1  0  0  0  0
 20 18  1  0  0  0  0
 21 23  1  0  0  0  0
 21 22  1  1  0  0  0
 23 24  2  0  0  0  0
 24 25  1  0  0  0  0
 26 24  1  0  0  0  0
 26 27  1  0  0  0  0
 28 26  2  0  0  0  0
 29 28  1  0  0  0  0
 30 68  2  0  0  0  0
 30 28  1  0  0  0  0
 31 30  1  0  0  0  0
 32 33  1  0  0  0  0
 32 31  1  0  0  0  0
 34 32  2  0  0  0  0
 35 34  1  0  0  0  0
 36 34  1  0  0  0  0
 36 38  2  0  0  0  0
 37 36  1  0  0  0  0
 38 40  1  0  0  0  0
 39 38  1  0  0  0  0
 40 41  1  0  0  0  0
 40 31  2  0  0  0  0
 42 43  1  0  0  0  0
 42 44  1  0  0  0  0
 45 42  1  0  0  0  0
 46 45  1  0  0  0  0
 46 47  1  0  0  0  0
 48 46  2  0  0  0  0
 49 48  1  0  0  0  0
 50 52  2  0  0  0  0
 50 48  1  0  0  0  0
 51 50  1  0  0  0  0
 52 70  1  0  0  0  0
 53 52  1  0  0  0  0
 54 56  1  0  0  0  0
 55 54  1  0  0  0  0
 57 58  1  0  0  0  0
 57 54  1  0  0  0  0
 58 59  1  0  0  0  0
 60 61  1  0  0  0  0
 60 58  2  0  0  0  0
 62 60  1  0  0  0  0
 63 62  1  0  0  0  0
 64 62  2  0  0  0  0
 64 66  1  0  0  0  0
 65 64  1  0  0  0  0
 66 57  2  0  0  0  0
 67 20  2  0  0  0  0
 67  1  9  0  0  0  0
 68 23  1  0  0  0  0
 68  1  9  0  0  0  0
 69 54  1  6  0  0  0
 69 42  1  0  0  0  0
 69 21  1  0  0  0  0
 69  1  9  0  0  0  0
 70 45  2  0  0  0  0
 70  1  9  0  0  0  0
 71 66  1  0  0  0  0
 71  1  1  0  0  0  0
 72 73  1  0  0  0  0
 72  1  1  0  0  0  0
M  CHG  1   1   1
M  END
$$$$
