
 OpenBabel02052520063D

 47 52  0  0  0  0  0  0  0  0999 V2000
    0.0686   -0.2843   -0.0224 Fe  0  0  0  0  0  0  0  0  0  0  0  0
    1.5403    0.2985   -1.6468 S   0  0  0  0  0  0  0  0  0  0  0  0
   -1.4838   -0.4522   -1.6729 S   0  0  0  0  0  0  0  0  0  0  0  0
    1.3544    0.2399    1.4525 N   0  0  0  0  0  0  0  0  0  0  0  0
   -1.2530   -0.5225    1.4734 N   0  0  0  0  0  0  0  0  0  0  0  0
    3.1665    0.1069   -1.0130 C   0  0  0  0  0  0  0  0  0  0  0  0
    4.1912   -0.0042   -1.9778 C   0  0  0  0  0  0  0  0  0  0  0  0
    5.5257   -0.1252   -1.6170 C   0  0  0  0  0  0  0  0  0  0  0  0
    5.9026   -0.1352   -0.2659 C   0  0  0  0  0  0  0  0  0  0  0  0
    4.9189   -0.0164    0.6990 C   0  0  0  0  0  0  0  0  0  0  0  0
    3.5497    0.0995    0.3592 C   0  0  0  0  0  0  0  0  0  0  0  0
    2.6428    0.2456    1.4731 C   0  0  0  0  0  0  0  0  0  0  0  0
   -3.0884   -0.6682   -1.0059 C   0  0  0  0  0  0  0  0  0  0  0  0
   -4.1362   -0.7330   -1.9552 C   0  0  0  0  0  0  0  0  0  0  0  0
   -5.4583   -0.9124   -1.5801 C   0  0  0  0  0  0  0  0  0  0  0  0
   -5.8077   -1.0345   -0.2255 C   0  0  0  0  0  0  0  0  0  0  0  0
   -4.8058   -0.9724    0.7239 C   0  0  0  0  0  0  0  0  0  0  0  0
   -3.4452   -0.7883    0.3700 C   0  0  0  0  0  0  0  0  0  0  0  0
   -2.5248   -0.7338    1.4823 C   0  0  0  0  0  0  0  0  0  0  0  0
    0.6111    0.4435    2.6972 C   0  0  0  0  0  0  0  0  0  0  0  0
   -0.5244   -0.5767    2.7491 C   0  0  0  0  0  0  0  0  0  0  0  0
   -0.5344    2.1714    0.2313 N   0  0  0  0  0  0  0  0  0  0  0  0
    0.4321    3.0970    0.1644 C   0  0  0  0  0  0  0  0  0  0  0  0
    0.1686    4.4636    0.0827 C   0  0  0  0  0  0  0  0  0  0  0  0
   -1.1612    4.8862    0.0622 C   0  0  0  0  0  0  0  0  0  0  0  0
   -2.1714    3.9257    0.1246 C   0  0  0  0  0  0  0  0  0  0  0  0
   -1.8094    2.5816    0.2072 C   0  0  0  0  0  0  0  0  0  0  0  0
   -2.9941   -0.8915    2.4597 H   0  0  0  0  0  0  0  0  0  0  0  0
    3.1295    0.3715    2.4468 H   0  0  0  0  0  0  0  0  0  0  0  0
   -2.5600    1.7990    0.2436 H   0  0  0  0  0  0  0  0  0  0  0  0
    3.9130   -0.0074   -3.0271 H   0  0  0  0  0  0  0  0  0  0  0  0
    6.2811   -0.2191   -2.3929 H   0  0  0  0  0  0  0  0  0  0  0  0
    6.9454   -0.2352    0.0186 H   0  0  0  0  0  0  0  0  0  0  0  0
    5.1936   -0.0208    1.7516 H   0  0  0  0  0  0  0  0  0  0  0  0
   -3.8813   -0.6448   -3.0070 H   0  0  0  0  0  0  0  0  0  0  0  0
   -6.2276   -0.9609   -2.3464 H   0  0  0  0  0  0  0  0  0  0  0  0
   -6.8420   -1.1781    0.0708 H   0  0  0  0  0  0  0  0  0  0  0  0
   -5.0575   -1.0687    1.7779 H   0  0  0  0  0  0  0  0  0  0  0  0
    0.1911    1.4552    2.6758 H   0  0  0  0  0  0  0  0  0  0  0  0
    1.2595    0.3468    3.5776 H   0  0  0  0  0  0  0  0  0  0  0  0
   -1.1883   -0.3738    3.5992 H   0  0  0  0  0  0  0  0  0  0  0  0
   -0.1055   -1.5837    2.8408 H   0  0  0  0  0  0  0  0  0  0  0  0
    1.4473    2.7121    0.1616 H   0  0  0  0  0  0  0  0  0  0  0  0
    0.9882    5.1733    0.0280 H   0  0  0  0  0  0  0  0  0  0  0  0
   -1.4053    5.9427   -0.0070 H   0  0  0  0  0  0  0  0  0  0  0  0
   -3.2200    4.2056    0.1033 H   0  0  0  0  0  0  0  0  0  0  0  0
    0.7834   -2.7740    0.3228 Br  0  0  0  0  0  0  0  0  0  0  0  0
  1 47  1  0  0  0  0
  2  6  1  0  0  0  0
  2  1  1  0  0  0  0
  3 13  1  0  0  0  0
  3  1  1  0  0  0  0
  4 12  2  0  0  0  0
  4 20  1  0  0  0  0
  4  1  9  0  0  0  0
  5 19  2  0  0  0  0
  5 21  1  0  0  0  0
  5  1  9  0  0  0  0
  6 11  2  0  0  0  0
  7  8  2  0  0  0  0
  7  6  1  0  0  0  0
  8  9  1  0  0  0  0
  9 33  1  0  0  0  0
  9 10  2  0  0  0  0
 10 34  1  0  0  0  0
 11 10  1  0  0  0  0
 11 12  1  0  0  0  0
 12 29  1  0  0  0  0
 13 18  1  0  0  0  0
 14 15  1  0  0  0  0
 14 13  2  0  0  0  0
 15 16  2  0  0  0  0
 16 37  1  0  0  0  0
 16 17  1  0  0  0  0
 17 38  1  0  0  0  0
 18 17  2  0  0  0  0
 18 19  1  0  0  0  0
 19 28  1  0  0  0  0
 20 21  1  0  0  0  0
 20 40  1  0  0  0  0
 21 42  1  0  0  0  0
 21 41  1  0  0  0  0
 22  1  9  0  0  0  0
 23 22  2  0  0  0  0
 24 23  1  0  0  0  0
 25 24  2  0  0  0  0
 25 26  1  0  0  0  0
 26 27  2  0  0  0  0
 27 22  1  0  0  0  0
 27 30  1  0  0  0  0
 31  7  1  0  0  0  0
 32  8  1  0  0  0  0
 35 14  1  0  0  0  0
 36 15  1  0  0  0  0
 39 20  1  0  0  0  0
 43 23  1  0  0  0  0
 44 24  1  0  0  0  0
 45 25  1  0  0  0  0
 46 26  1  0  0  0  0
M  END
$$$$
