
 OpenBabel02052520063D

 39 41  0  0  0  0  0  0  0  0999 V2000
    0.0000   -0.8476    0.0874 Fe  0  0  1  0  0  0  0  0  0  0  0  0
   -1.6955   -2.2046   -0.6916 S   0  0  0  0  0  0  0  0  0  0  0  0
    1.6958   -2.2043   -0.6923 S   0  0  0  0  0  0  0  0  0  0  0  0
   -1.2990    0.6333   -0.0999 N   0  0  0  0  0  0  0  0  0  0  0  0
    1.2989    0.6333   -0.0999 N   0  0  0  0  0  2  0  0  0  0  0  0
   -3.0394   -1.0879   -0.0563 C   0  0  0  0  0  0  0  0  0  0  0  0
   -2.6366    0.4038   -0.1712 C   0  5  0  0  0  0  0  0  0  0  0  0
   -0.7163    1.9098   -0.0839 C   0  0  0  0  0  0  0  0  0  0  0  0
   -1.4006    3.1388   -0.0624 C   0  0  0  0  0  0  0  0  0  0  0  0
   -0.6972    4.3480   -0.0354 C   0  0  0  0  0  0  0  0  0  0  0  0
    0.6968    4.3481   -0.0356 C   0  0  0  0  0  0  0  0  0  0  0  0
    1.4003    3.1389   -0.0628 C   0  0  0  0  0  0  0  0  0  0  0  0
    0.7162    1.9099   -0.0839 C   0  0  1  0  0  3  0  0  0  0  0  0
    2.6366    0.4039   -0.1711 C   0  0  0  0  0  0  0  0  0  0  0  0
    3.0395   -1.0878   -0.0563 C   0  0  0  0  0  0  0  0  0  0  0  0
   -4.3337   -1.3307   -0.8436 C   0  0  0  0  0  0  0  0  0  0  0  0
   -3.2694   -1.3646    1.4471 C   0  0  0  0  0  0  0  0  0  0  0  0
    4.3340   -1.3304   -0.8432 C   0  0  0  0  0  0  0  0  0  0  0  0
    3.2692   -1.3649    1.4471 C   0  0  0  0  0  0  0  0  0  0  0  0
   -3.5384    1.2597   -0.2509 O   0  5  0  0  0  0  0  0  0  0  0  0
    3.5384    1.2599   -0.2504 O   0  0  0  0  0  0  0  0  0  0  0  0
   -2.4809    3.1168   -0.0721 H   0  0  0  0  0  0  0  0  0  0  0  0
   -1.2505    5.2878   -0.0172 H   0  0  0  0  0  0  0  0  0  0  0  0
    1.2501    5.2879   -0.0176 H   0  0  0  0  0  0  0  0  0  0  0  0
    2.4807    3.1170   -0.0727 H   0  0  0  0  0  0  0  0  0  0  0  0
   -5.1217   -0.6564   -0.4870 H   0  0  0  0  0  0  0  0  0  0  0  0
   -4.6590   -2.3719   -0.7213 H   0  0  0  0  0  0  0  0  0  0  0  0
   -4.1788   -1.1413   -1.9116 H   0  0  0  0  0  0  0  0  0  0  0  0
   -4.0151   -0.6615    1.8513 H   0  0  0  0  0  0  0  0  0  0  0  0
   -3.6379   -2.3897    1.5865 H   0  0  0  0  0  0  0  0  0  0  0  0
   -2.3209   -1.2585    1.9855 H   0  0  0  0  0  0  0  0  0  0  0  0
    5.1219   -0.6561   -0.4863 H   0  0  0  0  0  0  0  0  0  0  0  0
    4.6593   -2.3715   -0.7211 H   0  0  0  0  0  0  0  0  0  0  0  0
    4.1795   -1.1407   -1.9112 H   0  0  0  0  0  0  0  0  0  0  0  0
    4.0148   -0.6619    1.8515 H   0  0  0  0  0  0  0  0  0  0  0  0
    2.3205   -1.2588    1.9854 H   0  0  0  0  0  0  0  0  0  0  0  0
    3.6376   -2.3899    1.5863 H   0  0  0  0  0  0  0  0  0  0  0  0
    0.0001   -1.0473    2.0234 O   0  0  0  0  0  0  0  0  0  0  0  0
   -0.0003   -0.1254    2.3340 H   0  0  0  0  0  0  0  0  0  0  0  0
  1 38  1  1  0  0  0
  2  6  1  0  0  0  0
  2  1  1  0  0  0  0
  3 15  1  0  0  0  0
  3  1  1  0  0  0  0
  4  8  2  0  0  0  0
  4  1  9  0  0  0  0
  6 17  1  0  0  0  0
  7 20  1  0  0  0  0
  7  4  1  0  0  0  0
  7  6  1  0  0  0  0
  8  9  1  0  0  0  0
  9 10  2  0  0  0  0
 10 23  1  0  0  0  0
 11 10  1  0  0  0  0
 11 24  1  0  0  0  0
 12 11  2  0  0  0  0
 13  5  1  1  0  0  0
 13  8  1  0  0  0  0
 13 12  1  0  0  0  0
 14  5  1  0  0  0  0
 14 15  1  0  0  0  0
 15 19  1  0  0  0  0
 16 27  1  0  0  0  0
 16 26  1  0  0  0  0
 16  6  1  0  0  0  0
 17 30  1  0  0  0  0
 17 29  1  0  0  0  0
 17 31  1  0  0  0  0
 18 33  1  0  0  0  0
 18 32  1  0  0  0  0
 18 15  1  0  0  0  0
 19 37  1  0  0  0  0
 19 35  1  0  0  0  0
 19 36  1  0  0  0  0
 21 14  2  0  0  0  0
 22  9  1  0  0  0  0
 25 12  1  0  0  0  0
 28 16  1  0  0  0  0
 34 18  1  0  0  0  0
 38 39  1  0  0  0  0
M  RAD  2   5   2  13   2
M  CHG  2   7  -1  20  -1
M  END
$$$$
