
 OpenBabel02052520063D

 99105  0  0  0  0  0  0  0  0999 V2000
   -0.4367   -0.4384   -0.4041 Fe  0  0  0  0  0  0  0  0  0  0  0  0
    0.1236    2.2032    3.2499 C   0  0  0  0  0  0  0  0  0  0  0  0
    0.1698    3.2533    2.9349 H   0  0  0  0  0  0  0  0  0  0  0  0
    0.3267    1.5880    2.3685 H   0  0  0  0  0  0  0  0  0  0  0  0
    0.9305    2.0360    3.9733 H   0  0  0  0  0  0  0  0  0  0  0  0
   -1.2612    0.4084    4.3649 C   0  0  0  0  0  0  0  0  0  0  0  0
   -0.5052    0.2575    5.1448 H   0  0  0  0  0  0  0  0  0  0  0  0
   -1.0372   -0.2914    3.5545 H   0  0  0  0  0  0  0  0  0  0  0  0
   -2.2385    0.1468    4.7904 H   0  0  0  0  0  0  0  0  0  0  0  0
   -1.4876    2.8018    5.0907 C   0  0  0  0  0  0  0  0  0  0  0  0
   -2.4591    2.5994    5.5592 H   0  0  0  0  0  0  0  0  0  0  0  0
   -1.4664    3.8580    4.7933 H   0  0  0  0  0  0  0  0  0  0  0  0
   -0.7130    2.6545    5.8519 H   0  0  0  0  0  0  0  0  0  0  0  0
   -1.2395    1.8740    3.8869 C   0  0  0  0  0  0  0  0  0  0  0  0
   -2.3770    2.1348    2.8680 C   0  0  0  0  0  0  0  0  0  0  0  0
   -3.3473    1.9169    3.3404 H   0  0  0  0  0  0  0  0  0  0  0  0
   -2.3709    3.2019    2.6144 H   0  0  0  0  0  0  0  0  0  0  0  0
   -2.5181    1.7979    0.4014 C   0  0  0  0  0  0  0  0  0  0  0  0
   -3.3205    2.9433    0.1472 C   0  0  0  0  0  0  0  0  0  0  0  0
   -3.5265    3.3430   -1.1576 C   0  0  0  0  0  0  0  0  0  0  0  0
   -2.9538    2.6244   -2.2197 C   0  0  0  0  0  0  0  0  0  0  0  0
   -3.0833    2.9329   -3.2510 H   0  0  0  0  0  0  0  0  0  0  0  0
   -2.2093    1.4990   -1.9079 C   0  0  0  0  0  0  0  0  0  0  0  0
   -1.5495    0.6449   -2.9676 C   0  0  0  0  0  0  0  0  0  0  0  0
   -2.1435   -0.2636   -3.0873 H   0  0  0  0  0  0  0  0  0  0  0  0
   -1.5159    1.1778   -3.9282 H   0  0  0  0  0  0  0  0  0  0  0  0
    0.3076   -0.9312   -3.2899 C   0  0  0  0  0  0  0  0  0  0  0  0
    0.7318   -0.6219   -4.2559 H   0  0  0  0  0  0  0  0  0  0  0  0
   -0.5507   -1.5802   -3.4840 H   0  0  0  0  0  0  0  0  0  0  0  0
    1.3190   -1.7326   -2.5021 C   0  0  0  0  0  0  0  0  0  0  0  0
    2.3590   -2.4010   -3.1247 C   0  0  0  0  0  0  0  0  0  0  0  0
    2.4916   -2.3362   -4.1990 H   0  0  0  0  0  0  0  0  0  0  0  0
    3.2407   -3.1351   -2.3173 C   0  0  0  0  0  0  0  0  0  0  0  0
    3.0681   -3.1687   -0.9492 C   0  0  0  0  0  0  0  0  0  0  0  0
    1.9841   -2.4555   -0.3731 C   0  0  0  0  0  0  0  0  0  0  0  0
    2.6844   -2.9235    1.9559 C   0  0  0  0  0  0  0  0  0  0  0  0
    3.6958   -2.5556    1.7284 H   0  0  0  0  0  0  0  0  0  0  0  0
    2.7216   -4.0237    1.9183 H   0  0  0  0  0  0  0  0  0  0  0  0
    2.3020   -2.4816    3.3865 C   0  0  0  0  0  0  0  0  0  0  0  0
    2.2757   -0.9440    3.4831 C   0  0  0  0  0  0  0  0  0  0  0  0
    3.2470   -0.5153    3.2061 H   0  0  0  0  0  0  0  0  0  0  0  0
    2.0518   -0.6324    4.5102 H   0  0  0  0  0  0  0  0  0  0  0  0
    1.5120   -0.5078    2.8335 H   0  0  0  0  0  0  0  0  0  0  0  0
    3.3773   -3.0372    4.3383 C   0  0  0  0  0  0  0  0  0  0  0  0
    3.4252   -4.1323    4.2913 H   0  0  0  0  0  0  0  0  0  0  0  0
    3.1532   -2.7569    5.3738 H   0  0  0  0  0  0  0  0  0  0  0  0
    4.3712   -2.6423    4.0922 H   0  0  0  0  0  0  0  0  0  0  0  0
    0.9266   -3.0552    3.7815 C   0  0  0  0  0  0  0  0  0  0  0  0
    0.1223   -2.6572    3.1558 H   0  0  0  0  0  0  0  0  0  0  0  0
    0.6931   -2.7936    4.8204 H   0  0  0  0  0  0  0  0  0  0  0  0
    0.9171   -4.1488    3.6982 H   0  0  0  0  0  0  0  0  0  0  0  0
    0.7369    1.3919   -2.4492 C   0  0  0  0  0  0  0  0  0  0  0  0
    0.1160    2.2868   -2.4917 H   0  0  0  0  0  0  0  0  0  0  0  0
    1.3891    1.4182   -3.3285 H   0  0  0  0  0  0  0  0  0  0  0  0
    1.5516    1.4946   -1.0999 C   0  0  0  0  0  0  0  0  0  0  0  0
    1.6960    3.0080   -0.8203 C   0  0  0  0  0  0  0  0  0  0  0  0
    0.6960    3.6483   -0.0757 C   0  0  0  0  0  0  0  0  0  0  0  0
   -0.1079    3.0523    0.3375 H   0  0  0  0  0  0  0  0  0  0  0  0
    0.7452    5.0241    0.1444 C   0  0  0  0  0  0  0  0  0  0  0  0
   -0.0369    5.5022    0.7294 H   0  0  0  0  0  0  0  0  0  0  0  0
    1.7929    5.7841   -0.3824 C   0  0  0  0  0  0  0  0  0  0  0  0
    1.8339    6.8564   -0.2096 H   0  0  0  0  0  0  0  0  0  0  0  0
    2.7894    5.1536   -1.1287 C   0  0  0  0  0  0  0  0  0  0  0  0
    3.6126    5.7332   -1.5389 H   0  0  0  0  0  0  0  0  0  0  0  0
    2.7420    3.7738   -1.3459 C   0  0  0  0  0  0  0  0  0  0  0  0
    3.5340    3.2934   -1.9121 H   0  0  0  0  0  0  0  0  0  0  0  0
    2.9432    0.8347   -1.1039 C   0  0  0  0  0  0  0  0  0  0  0  0
    3.7261    0.6430   -2.2458 C   0  0  0  0  0  0  0  0  0  0  0  0
    3.3479    0.9119   -3.2274 H   0  0  0  0  0  0  0  0  0  0  0  0
    5.0097    0.0944   -2.1518 C   0  0  0  0  0  0  0  0  0  0  0  0
    5.5957   -0.0539   -3.0553 H   0  0  0  0  0  0  0  0  0  0  0  0
    5.5317   -0.2650   -0.9110 C   0  0  0  0  0  0  0  0  0  0  0  0
    6.5283   -0.6923   -0.8384 H   0  0  0  0  0  0  0  0  0  0  0  0
    4.7595   -0.0701    0.2383 C   0  0  0  0  0  0  0  0  0  0  0  0
    5.1540   -0.3427    1.2143 H   0  0  0  0  0  0  0  0  0  0  0  0
    3.4817    0.4737    0.1412 C   0  0  0  0  0  0  0  0  0  0  0  0
    2.8748    0.6139    1.0271 H   0  0  0  0  0  0  0  0  0  0  0  0
   -2.2158    1.3659    1.6441 N   0  0  0  0  0  0  0  0  0  0  0  0
   -1.7210    0.4704    1.7020 H   0  0  0  0  0  0  0  0  0  0  0  0
   -2.0027    1.0927   -0.6404 N   0  0  0  0  0  0  0  0  0  0  0  0
   -0.1935    0.2300   -2.5279 N   0  0  2  0  0  0  0  0  0  0  0  0
    1.1246   -1.7663   -1.1701 N   0  0  0  0  0  0  0  0  0  0  0  0
    1.7634   -2.4126    0.9567 N   0  0  0  0  0  0  0  0  0  0  0  0
    0.9049   -1.9484    1.2645 H   0  0  0  0  0  0  0  0  0  0  0  0
    0.7917    0.9165   -0.0757 O   0  0  0  0  0  0  0  0  0  0  0  0
   -0.7526   -1.0875    1.3325 O   0  0  0  0  0  0  0  0  0  0  0  0
   -1.3967   -1.8319    1.3226 H   0  0  0  0  0  0  0  0  0  0  0  0
   -1.7714   -1.8093   -1.3620 O   0  0  0  0  0  0  0  0  0  0  0  0
   -2.8340   -2.7355   -0.7971 S   0  0  0  0  0  0  0  0  0  0  0  0
   -4.2934   -1.5794   -0.6967 C   0  0  0  0  0  0  0  0  0  0  0  0
   -2.5683   -3.1055    0.6100 O   0  0  0  0  0  0  0  0  0  0  0  0
   -5.4235   -2.2656   -0.5133 F   0  0  0  0  0  0  0  0  0  0  0  0
   -4.4014   -0.8651   -1.8325 F   0  0  0  0  0  0  0  0  0  0  0  0
   -4.1391   -0.7233    0.3270 F   0  0  0  0  0  0  0  0  0  0  0  0
    4.0723   -3.6704   -2.7673 H   0  0  0  0  0  0  0  0  0  0  0  0
    3.7472   -3.7240   -0.3150 H   0  0  0  0  0  0  0  0  0  0  0  0
   -4.1340    4.2208   -1.3607 H   0  0  0  0  0  0  0  0  0  0  0  0
   -3.7744    3.4798    0.9710 H   0  0  0  0  0  0  0  0  0  0  0  0
   -3.2278   -3.7854   -1.7331 O   0  0  0  0  0  0  0  0  0  0  0  0
  1 85  1  0  0  0  0
  1 86  1  0  0  0  0
  2 14  1  0  0  0  0
  2  5  1  0  0  0  0
  3  2  1  0  0  0  0
  4  2  1  0  0  0  0
  6  9  1  0  0  0  0
  6  7  1  0  0  0  0
  8  6  1  0  0  0  0
 10 11  1  0  0  0  0
 10 13  1  0  0  0  0
 12 10  1  0  0  0  0
 14  6  1  0  0  0  0
 14 10  1  0  0  0  0
 15 16  1  0  0  0  0
 15 14  1  0  0  0  0
 17 15  1  0  0  0  0
 18 78  1  0  0  0  0
 19 18  1  0  0  0  0
 19 98  1  0  0  0  0
 20 19  2  0  0  0  0
 21 23  2  0  0  0  0
 21 20  1  0  0  0  0
 22 21  1  0  0  0  0
 23 80  1  0  0  0  0
 24 81  1  0  0  0  0
 24 23  1  0  0  0  0
 25 24  1  0  0  0  0
 26 24  1  0  0  0  0
 27 30  1  0  0  0  0
 28 27  1  0  0  0  0
 29 27  1  0  0  0  0
 30 82  1  0  0  0  0
 31 30  2  0  0  0  0
 31 33  1  0  0  0  0
 32 31  1  0  0  0  0
 33 34  2  0  0  0  0
 34 35  1  0  0  0  0
 34 96  1  0  0  0  0
 35 83  1  0  0  0  0
 36 39  1  0  0  0  0
 37 36  1  0  0  0  0
 38 36  1  0  0  0  0
 39 40  1  0  0  0  0
 39 48  1  0  0  0  0
 39 44  1  0  0  0  0
 40 42  1  0  0  0  0
 41 40  1  0  0  0  0
 43 40  1  0  0  0  0
 44 46  1  0  0  0  0
 45 44  1  0  0  0  0
 47 44  1  0  0  0  0
 48 50  1  0  0  0  0
 49 48  1  0  0  0  0
 51 48  1  0  0  0  0
 52 55  1  0  0  0  0
 53 52  1  0  0  0  0
 54 52  1  0  0  0  0
 55 56  1  0  0  0  0
 55 85  1  0  0  0  0
 56 57  2  0  0  0  0
 57 59  1  0  0  0  0
 57 58  1  0  0  0  0
 59 60  1  0  0  0  0
 61 62  1  0  0  0  0
 61 59  2  0  0  0  0
 63 61  1  0  0  0  0
 64 63  1  0  0  0  0
 65 63  2  0  0  0  0
 65 56  1  0  0  0  0
 66 65  1  0  0  0  0
 67 55  1  0  0  0  0
 67 76  2  0  0  0  0
 68 70  2  0  0  0  0
 68 67  1  0  0  0  0
 69 68  1  0  0  0  0
 70 72  1  0  0  0  0
 71 70  1  0  0  0  0
 72 73  1  0  0  0  0
 72 74  2  0  0  0  0
 74 75  1  0  0  0  0
 76 74  1  0  0  0  0
 76 77  1  0  0  0  0
 78 79  1  0  0  0  0
 78 15  1  0  0  0  0
 80 18  2  0  0  0  0
 80  1  9  0  0  0  0
 81 27  1  6  0  0  0
 81 52  1  0  0  0  0
 81  1  9  0  0  0  0
 82 35  2  0  0  0  0
 82  1  9  0  0  0  0
 83 84  1  0  0  0  0
 83 36  1  0  0  0  0
 87 86  1  0  0  0  0
 88 89  1  0  0  0  0
 88  1  1  0  0  0  0
 89 90  1  0  0  0  0
 89 91  2  0  0  0  0
 90 92  1  0  0  0  0
 90 94  1  0  0  0  0
 93 90  1  0  0  0  0
 95 33  1  0  0  0  0
 97 20  1  0  0  0  0
 99 89  2  0  0  0  0
M  END
$$$$
