
 OpenBabel02052520063D

 72 81  0  0  0  0  0  0  0  0999 V2000
    0.1254   -0.2181   -0.1396 Fe  0  3  0  0  0  0  0  0  0  0  0  0
   -3.7660   -2.5372   -1.1840 C   0  0  0  0  0  0  0  0  0  0  0  0
   -4.5475   -2.2907   -0.4700 H   0  0  0  0  0  0  0  0  0  0  0  0
   -4.0798   -2.7067   -2.5304 C   0  0  0  0  0  0  0  0  0  0  0  0
   -5.1084   -2.6009   -2.8621 H   0  0  0  0  0  0  0  0  0  0  0  0
   -3.0724   -3.0098   -3.4506 C   0  0  0  0  0  0  0  0  0  0  0  0
   -3.3195   -3.1462   -4.4994 H   0  0  0  0  0  0  0  0  0  0  0  0
   -1.7502   -3.1368   -3.0213 C   0  0  0  0  0  0  0  0  0  0  0  0
   -0.9649   -3.3743   -3.7327 H   0  0  0  0  0  0  0  0  0  0  0  0
   -1.4280   -2.9494   -1.6790 C   0  0  0  0  0  0  0  0  0  0  0  0
   -0.3989   -3.0244   -1.3499 H   0  0  0  0  0  0  0  0  0  0  0  0
   -2.4343   -2.6428   -0.7529 C   0  0  0  0  0  0  0  0  0  0  0  0
   -2.1155   -2.4897    0.6818 C   0  0  0  0  0  0  0  0  0  0  0  0
   -2.8368   -3.2388    1.6304 C   0  0  0  0  0  0  0  0  0  0  0  0
   -3.6294   -3.8913    1.2826 H   0  0  0  0  0  0  0  0  0  0  0  0
   -2.4960   -3.1806    2.9734 C   0  0  0  0  0  0  0  0  0  0  0  0
   -3.0305   -3.7784    3.7056 H   0  0  0  0  0  0  0  0  0  0  0  0
   -1.4374   -2.3575    3.3649 C   0  0  0  0  0  0  0  0  0  0  0  0
   -1.1271   -2.2894    4.4024 H   0  0  0  0  0  0  0  0  0  0  0  0
   -0.7919   -1.6103    2.3904 C   0  0  0  0  0  0  0  0  0  0  0  0
    0.2534   -0.5659    2.7607 C   0  0  2  0  0  0  0  0  0  0  0  0
    0.6490   -0.7810    3.7633 H   0  0  0  0  0  0  0  0  0  0  0  0
   -0.4906    0.7633    2.7744 C   0  0  0  0  0  0  0  0  0  0  0  0
   -1.0732    1.2416    3.9429 C   0  0  0  0  0  0  0  0  0  0  0  0
   -0.9180    0.7261    4.8853 H   0  0  0  0  0  0  0  0  0  0  0  0
   -1.8721    2.3830    3.8605 C   0  0  0  0  0  0  0  0  0  0  0  0
   -2.3577    2.7829    4.7455 H   0  0  0  0  0  0  0  0  0  0  0  0
   -2.0086    3.0155    2.6314 C   0  0  0  0  0  0  0  0  0  0  0  0
   -2.5840    3.9292    2.5318 H   0  0  0  0  0  0  0  0  0  0  0  0
   -1.3449    2.5070    1.5017 C   0  0  0  0  0  0  0  0  0  0  0  0
   -1.3742    3.2735    0.2367 C   0  0  0  0  0  0  0  0  0  0  0  0
   -0.1732    3.6852   -0.3538 C   0  0  0  0  0  0  0  0  0  0  0  0
    0.7670    3.4279    0.1197 H   0  0  0  0  0  0  0  0  0  0  0  0
   -0.1893    4.4350   -1.5277 C   0  0  0  0  0  0  0  0  0  0  0  0
    0.7470    4.7559   -1.9758 H   0  0  0  0  0  0  0  0  0  0  0  0
   -1.4064    4.7763   -2.1222 C   0  0  0  0  0  0  0  0  0  0  0  0
   -1.4200    5.3532   -3.0422 H   0  0  0  0  0  0  0  0  0  0  0  0
   -2.6077    4.3842   -1.5263 C   0  0  0  0  0  0  0  0  0  0  0  0
   -3.5554    4.6481   -1.9858 H   0  0  0  0  0  0  0  0  0  0  0  0
   -2.5938    3.6469   -0.3437 C   0  0  0  0  0  0  0  0  0  0  0  0
   -3.5269    3.3250    0.1102 H   0  0  0  0  0  0  0  0  0  0  0  0
    2.3047    0.5545    1.9223 C   0  0  0  0  0  0  0  0  0  0  0  0
    3.1842    0.2071    2.4774 H   0  0  0  0  0  0  0  0  0  0  0  0
    1.8383    1.3438    2.5177 H   0  0  0  0  0  0  0  0  0  0  0  0
    2.7267    1.1472    0.5944 C   0  0  0  0  0  0  0  0  0  0  0  0
    3.9760    1.7407    0.4133 C   0  0  0  0  0  0  0  0  0  0  0  0
    4.6989    1.7406    1.2228 H   0  0  0  0  0  0  0  0  0  0  0  0
    4.2787    2.3116   -0.8211 C   0  0  0  0  0  0  0  0  0  0  0  0
    5.2472    2.7736   -0.9870 H   0  0  0  0  0  0  0  0  0  0  0  0
    3.3274    2.2693   -1.8432 C   0  0  0  0  0  0  0  0  0  0  0  0
    3.5282    2.6931   -2.8211 H   0  0  0  0  0  0  0  0  0  0  0  0
    2.1064    1.6561   -1.5898 C   0  0  0  0  0  0  0  0  0  0  0  0
    1.3228    1.5833   -2.3357 H   0  0  0  0  0  0  0  0  0  0  0  0
    2.0311   -1.8726    1.6644 C   0  0  0  0  0  0  0  0  0  0  0  0
    1.2572   -2.6316    1.5297 H   0  0  0  0  0  0  0  0  0  0  0  0
    2.5389   -2.0704    2.6193 H   0  0  0  0  0  0  0  0  0  0  0  0
    3.0056   -1.9400    0.5211 C   0  0  0  0  0  0  0  0  0  0  0  0
    4.3614   -2.2005    0.7135 C   0  0  0  0  0  0  0  0  0  0  0  0
    4.7410   -2.3359    1.7240 H   0  0  0  0  0  0  0  0  0  0  0  0
    5.2330   -2.2980   -0.3755 C   0  0  0  0  0  0  0  0  0  0  0  0
    6.2861   -2.5030   -0.2110 H   0  0  0  0  0  0  0  0  0  0  0  0
    4.7394   -2.1395   -1.6758 C   0  0  0  0  0  0  0  0  0  0  0  0
    5.4130   -2.2184   -2.5242 H   0  0  0  0  0  0  0  0  0  0  0  0
    3.3888   -1.8820   -1.8913 C   0  0  0  0  0  0  0  0  0  0  0  0
    2.9838   -1.7502   -2.8895 H   0  0  0  0  0  0  0  0  0  0  0  0
    2.5087   -1.7739   -0.7979 C   0  0  0  0  0  0  0  0  0  0  0  0
   -1.1168   -1.6625    1.0797 N   0  0  0  0  0  0  0  0  0  0  0  0
   -0.6275    1.3604    1.5750 N   0  0  0  0  0  0  0  0  0  0  0  0
    1.3310   -0.5512    1.7463 N   0  0  2  0  0  0  0  0  0  0  0  0
    1.8150    1.1190   -0.3926 N   0  0  0  0  0  0  0  0  0  0  0  0
    1.2277   -1.4844   -1.0013 O   0  0  0  0  0  0  0  0  0  0  0  0
   -1.4001    0.5579   -1.8549 Br  0  0  0  0  0  0  0  0  0  0  0  0
  2 12  1  0  0  0  0
  2  3  1  0  0  0  0
  4  2  2  0  0  0  0
  5  4  1  0  0  0  0
  6  8  2  0  0  0  0
  6  4  1  0  0  0  0
  7  6  1  0  0  0  0
  8 10  1  0  0  0  0
  9  8  1  0  0  0  0
 10 11  1  0  0  0  0
 10 12  2  0  0  0  0
 12 13  1  0  0  0  0
 13 67  1  0  0  0  0
 13 14  2  0  0  0  0
 14 16  1  0  0  0  0
 15 14  1  0  0  0  0
 16 18  2  0  0  0  0
 16 17  1  0  0  0  0
 18 19  1  0  0  0  0
 20 21  1  0  0  0  0
 20 18  1  0  0  0  0
 21 23  1  0  0  0  0
 21 22  1  1  0  0  0
 23 24  2  0  0  0  0
 24 25  1  0  0  0  0
 26 24  1  0  0  0  0
 26 27  1  0  0  0  0
 28 26  2  0  0  0  0
 29 28  1  0  0  0  0
 30 68  2  0  0  0  0
 30 28  1  0  0  0  0
 31 30  1  0  0  0  0
 32 33  1  0  0  0  0
 32 31  1  0  0  0  0
 34 32  2  0  0  0  0
 35 34  1  0  0  0  0
 36 34  1  0  0  0  0
 36 38  2  0  0  0  0
 37 36  1  0  0  0  0
 38 40  1  0  0  0  0
 39 38  1  0  0  0  0
 40 41  1  0  0  0  0
 40 31  2  0  0  0  0
 42 43  1  0  0  0  0
 42 44  1  0  0  0  0
 45 42  1  0  0  0  0
 46 45  1  0  0  0  0
 46 47  1  0  0  0  0
 48 46  2  0  0  0  0
 49 48  1  0  0  0  0
 50 52  2  0  0  0  0
 50 48  1  0  0  0  0
 51 50  1  0  0  0  0
 52 70  1  0  0  0  0
 53 52  1  0  0  0  0
 54 56  1  0  0  0  0
 55 54  1  0  0  0  0
 57 58  1  0  0  0  0
 57 54  1  0  0  0  0
 58 59  1  0  0  0  0
 60 61  1  0  0  0  0
 60 58  2  0  0  0  0
 62 60  1  0  0  0  0
 63 62  1  0  0  0  0
 64 62  2  0  0  0  0
 64 66  1  0  0  0  0
 65 64  1  0  0  0  0
 66 57  2  0  0  0  0
 67 20  2  0  0  0  0
 67  1  9  0  0  0  0
 68 23  1  0  0  0  0
 68  1  9  0  0  0  0
 69 54  1  6  0  0  0
 69 42  1  0  0  0  0
 69 21  1  0  0  0  0
 69  1  9  0  0  0  0
 70 45  2  0  0  0  0
 70  1  9  0  0  0  0
 71 66  1  0  0  0  0
 71  1  1  0  0  0  0
 72  1  1  0  0  0  0
M  CHG  1   1   1
M  END
$$$$
