
 OpenBabel02052520063D

 72 81  0  0  0  0  0  0  0  0999 V2000
    0.0953   -0.1018   -0.2785 Fe  0  3  0  0  0  0  0  0  0  0  0  0
   -3.8217   -2.3314   -1.4868 C   0  0  0  0  0  0  0  0  0  0  0  0
   -4.5484   -2.4047   -0.6819 H   0  0  0  0  0  0  0  0  0  0  0  0
   -4.2553   -2.1673   -2.8004 C   0  0  0  0  0  0  0  0  0  0  0  0
   -5.3189   -2.1257   -3.0160 H   0  0  0  0  0  0  0  0  0  0  0  0
   -3.3228   -2.0557   -3.8356 C   0  0  0  0  0  0  0  0  0  0  0  0
   -3.6617   -1.9327   -4.8602 H   0  0  0  0  0  0  0  0  0  0  0  0
   -1.9571   -2.1054   -3.5512 C   0  0  0  0  0  0  0  0  0  0  0  0
   -1.2285   -2.0256   -4.3525 H   0  0  0  0  0  0  0  0  0  0  0  0
   -1.5170   -2.2570   -2.2376 C   0  0  0  0  0  0  0  0  0  0  0  0
   -0.4551   -2.2984   -2.0253 H   0  0  0  0  0  0  0  0  0  0  0  0
   -2.4475   -2.3661   -1.1942 C   0  0  0  0  0  0  0  0  0  0  0  0
   -2.0147   -2.5494    0.2086 C   0  0  0  0  0  0  0  0  0  0  0  0
   -2.6090   -3.5497    1.0021 C   0  0  0  0  0  0  0  0  0  0  0  0
   -3.3584   -4.1936    0.5565 H   0  0  0  0  0  0  0  0  0  0  0  0
   -2.2086   -3.7250    2.3183 C   0  0  0  0  0  0  0  0  0  0  0  0
   -2.6471   -4.5091    2.9281 H   0  0  0  0  0  0  0  0  0  0  0  0
   -1.2275   -2.8810    2.8470 C   0  0  0  0  0  0  0  0  0  0  0  0
   -0.8926   -2.9763    3.8746 H   0  0  0  0  0  0  0  0  0  0  0  0
   -0.6911   -1.9029    2.0228 C   0  0  0  0  0  0  0  0  0  0  0  0
    0.2573   -0.8330    2.5593 C   0  0  2  0  0  0  0  0  0  0  0  0
    0.6409   -1.1397    3.5426 H   0  0  0  0  0  0  0  0  0  0  0  0
   -0.6003    0.4195    2.6996 C   0  0  0  0  0  0  0  0  0  0  0  0
   -1.1995    0.7647    3.9050 C   0  0  0  0  0  0  0  0  0  0  0  0
   -0.9679    0.2149    4.8117 H   0  0  0  0  0  0  0  0  0  0  0  0
   -2.1191    1.8163    3.9053 C   0  0  0  0  0  0  0  0  0  0  0  0
   -2.6161    2.1130    4.8240 H   0  0  0  0  0  0  0  0  0  0  0  0
   -2.3799    2.4828    2.7141 C   0  0  0  0  0  0  0  0  0  0  0  0
   -3.0756    3.3136    2.6753 H   0  0  0  0  0  0  0  0  0  0  0  0
   -1.7038    2.1085    1.5403 C   0  0  0  0  0  0  0  0  0  0  0  0
   -1.9207    2.8640    0.2840 C   0  0  0  0  0  0  0  0  0  0  0  0
   -0.8521    3.5330   -0.3242 C   0  0  0  0  0  0  0  0  0  0  0  0
    0.1327    3.4811    0.1264 H   0  0  0  0  0  0  0  0  0  0  0  0
   -1.0580    4.2689   -1.4888 C   0  0  0  0  0  0  0  0  0  0  0  0
   -0.2263    4.7945   -1.9499 H   0  0  0  0  0  0  0  0  0  0  0  0
   -2.3324    4.3353   -2.0578 C   0  0  0  0  0  0  0  0  0  0  0  0
   -2.4923    4.9040   -2.9692 H   0  0  0  0  0  0  0  0  0  0  0  0
   -3.4034    3.6783   -1.4479 C   0  0  0  0  0  0  0  0  0  0  0  0
   -4.3956    3.7297   -1.8865 H   0  0  0  0  0  0  0  0  0  0  0  0
   -3.2025    2.9547   -0.2725 C   0  0  0  0  0  0  0  0  0  0  0  0
   -4.0333    2.4375    0.2001 H   0  0  0  0  0  0  0  0  0  0  0  0
    2.2277    0.5404    1.9191 C   0  0  0  0  0  0  0  0  0  0  0  0
    3.1243    0.2017    2.4522 H   0  0  0  0  0  0  0  0  0  0  0  0
    1.6874    1.2153    2.5894 H   0  0  0  0  0  0  0  0  0  0  0  0
    2.6143    1.3158    0.6758 C   0  0  0  0  0  0  0  0  0  0  0  0
    3.8350    1.9774    0.5442 C   0  0  0  0  0  0  0  0  0  0  0  0
    4.5786    1.9088    1.3316 H   0  0  0  0  0  0  0  0  0  0  0  0
    4.0833    2.7028   -0.6197 C   0  0  0  0  0  0  0  0  0  0  0  0
    5.0301    3.2184   -0.7492 H   0  0  0  0  0  0  0  0  0  0  0  0
    3.1095    2.7483   -1.6215 C   0  0  0  0  0  0  0  0  0  0  0  0
    3.2731    3.2947   -2.5440 H   0  0  0  0  0  0  0  0  0  0  0  0
    1.9197    2.0591   -1.4203 C   0  0  0  0  0  0  0  0  0  0  0  0
    1.1148    2.0355   -2.1475 H   0  0  0  0  0  0  0  0  0  0  0  0
    2.1431   -1.8479    1.3422 C   0  0  0  0  0  0  0  0  0  0  0  0
    1.4273   -2.6370    1.0988 H   0  0  0  0  0  0  0  0  0  0  0  0
    2.6635   -2.1354    2.2676 H   0  0  0  0  0  0  0  0  0  0  0  0
    3.1189   -1.6899    0.2098 C   0  0  0  0  0  0  0  0  0  0  0  0
    4.4920   -1.8611    0.3834 C   0  0  0  0  0  0  0  0  0  0  0  0
    4.8792   -2.0955    1.3727 H   0  0  0  0  0  0  0  0  0  0  0  0
    5.3706   -1.7423   -0.6969 C   0  0  0  0  0  0  0  0  0  0  0  0
    6.4370   -1.8799   -0.5481 H   0  0  0  0  0  0  0  0  0  0  0  0
    4.8662   -1.4553   -1.9708 C   0  0  0  0  0  0  0  0  0  0  0  0
    5.5446   -1.3660   -2.8145 H   0  0  0  0  0  0  0  0  0  0  0  0
    3.4990   -1.2841   -2.1665 C   0  0  0  0  0  0  0  0  0  0  0  0
    3.0864   -1.0556   -3.1440 H   0  0  0  0  0  0  0  0  0  0  0  0
    2.6090   -1.3927   -1.0808 C   0  0  0  0  0  0  0  0  0  0  0  0
   -1.0591   -1.7456    0.7319 N   0  0  0  0  0  0  0  0  0  0  0  0
   -0.8351    1.0738    1.5460 N   0  0  0  0  0  0  0  0  0  0  0  0
    1.3470   -0.6056    1.5876 N   0  0  2  0  0  0  0  0  0  0  0  0
    1.6849    1.3714   -0.2910 N   0  0  0  0  0  0  0  0  0  0  0  0
    1.3103   -1.1792   -1.2633 O   0  0  0  0  0  0  0  0  0  0  0  0
   -0.9370    0.6555   -1.4976 F   0  0  0  0  0  0  0  0  0  0  0  0
  2 12  1  0  0  0  0
  2  3  1  0  0  0  0
  4  2  2  0  0  0  0
  5  4  1  0  0  0  0
  6  8  2  0  0  0  0
  6  4  1  0  0  0  0
  7  6  1  0  0  0  0
  8 10  1  0  0  0  0
  9  8  1  0  0  0  0
 10 11  1  0  0  0  0
 10 12  2  0  0  0  0
 12 13  1  0  0  0  0
 13 67  1  0  0  0  0
 13 14  2  0  0  0  0
 14 16  1  0  0  0  0
 15 14  1  0  0  0  0
 16 18  2  0  0  0  0
 16 17  1  0  0  0  0
 18 19  1  0  0  0  0
 20 21  1  0  0  0  0
 20 18  1  0  0  0  0
 21 23  1  0  0  0  0
 21 22  1  1  0  0  0
 23 24  2  0  0  0  0
 24 26  1  0  0  0  0
 24 25  1  0  0  0  0
 26 27  1  0  0  0  0
 28 26  2  0  0  0  0
 29 28  1  0  0  0  0
 30 68  2  0  0  0  0
 30 28  1  0  0  0  0
 31 30  1  0  0  0  0
 32 33  1  0  0  0  0
 32 31  1  0  0  0  0
 34 32  2  0  0  0  0
 35 34  1  0  0  0  0
 36 34  1  0  0  0  0
 36 38  2  0  0  0  0
 37 36  1  0  0  0  0
 38 40  1  0  0  0  0
 39 38  1  0  0  0  0
 40 41  1  0  0  0  0
 40 31  2  0  0  0  0
 42 43  1  0  0  0  0
 42 44  1  0  0  0  0
 45 42  1  0  0  0  0
 46 45  1  0  0  0  0
 46 47  1  0  0  0  0
 48 46  2  0  0  0  0
 49 48  1  0  0  0  0
 50 52  2  0  0  0  0
 50 48  1  0  0  0  0
 51 50  1  0  0  0  0
 52 70  1  0  0  0  0
 53 52  1  0  0  0  0
 54 56  1  0  0  0  0
 55 54  1  0  0  0  0
 57 58  1  0  0  0  0
 57 54  1  0  0  0  0
 58 59  1  0  0  0  0
 60 61  1  0  0  0  0
 60 58  2  0  0  0  0
 62 60  1  0  0  0  0
 63 62  1  0  0  0  0
 64 62  2  0  0  0  0
 64 66  1  0  0  0  0
 65 64  1  0  0  0  0
 66 57  2  0  0  0  0
 67 20  2  0  0  0  0
 67  1  9  0  0  0  0
 68 23  1  0  0  0  0
 68  1  9  0  0  0  0
 69 54  1  6  0  0  0
 69 42  1  0  0  0  0
 69 21  1  0  0  0  0
 69  1  9  0  0  0  0
 70 45  2  0  0  0  0
 70  1  9  0  0  0  0
 71 66  1  0  0  0  0
 71  1  1  0  0  0  0
 72  1  1  0  0  0  0
M  CHG  1   1   1
M  END
$$$$
