
 OpenBabel02052520063D

 48 51  0  0  0  0  0  0  0  0999 V2000
   -0.1148    0.0207   -0.0175 Fe  0  0  0  0  0  0  0  0  0  0  0  0
    1.1475   -1.0912   -1.6909 S   0  0  0  0  0  0  0  0  0  0  0  0
    1.2004   -0.9782    1.6883 S   0  0  0  0  0  0  0  0  0  0  0  0
    2.4137   -1.5573   -0.0029 Si  0  0  0  0  0  0  0  0  0  0  0  0
   -1.8127   -1.6262    0.0070 N   0  0  2  0  0  0  0  0  0  0  0  0
   -1.7802    0.8779   -1.4330 N   0  0  2  0  0  0  0  0  0  0  0  0
   -1.7180    0.8721    1.4683 N   0  0  2  0  0  0  0  0  0  0  0  0
    2.7854   -3.4083    0.0561 C   0  0  0  0  0  0  0  0  0  0  0  0
    4.0001   -0.5488   -0.0613 C   0  0  0  0  0  0  0  0  0  0  0  0
   -1.2193   -2.9644    0.2152 C   0  0  0  0  0  0  0  0  0  0  0  0
   -2.3805   -1.5406   -1.3576 C   0  0  0  0  0  0  0  0  0  0  0  0
   -2.8104   -1.3341    1.0718 C   0  0  0  0  0  0  0  0  0  0  0  0
   -2.8367   -0.1247   -1.7134 C   0  0  0  0  0  0  0  0  0  0  0  0
   -1.1102    1.3126   -2.6765 C   0  0  0  0  0  0  0  0  0  0  0  0
   -2.2727    2.0477   -0.6741 C   0  0  0  0  0  0  0  0  0  0  0  0
   -2.7347    1.6728    0.7368 C   0  0  0  0  0  0  0  0  0  0  0  0
   -1.0061    1.7067    2.4590 C   0  0  0  0  0  0  0  0  0  0  0  0
   -2.2774   -0.3378    2.1036 C   0  0  0  0  0  0  0  0  0  0  0  0
    1.8619   -3.9942    0.1040 H   0  0  0  0  0  0  0  0  0  0  0  0
    3.3427   -3.7145   -0.8375 H   0  0  0  0  0  0  0  0  0  0  0  0
    3.3895   -3.6467    0.9399 H   0  0  0  0  0  0  0  0  0  0  0  0
    4.6165   -0.7476    0.8239 H   0  0  0  0  0  0  0  0  0  0  0  0
    4.5835   -0.7980   -0.9561 H   0  0  0  0  0  0  0  0  0  0  0  0
    3.7674    0.5206   -0.0864 H   0  0  0  0  0  0  0  0  0  0  0  0
   -1.9837   -3.7512    0.1173 H   0  0  0  0  0  0  0  0  0  0  0  0
   -0.4319   -3.1176   -0.5232 H   0  0  0  0  0  0  0  0  0  0  0  0
   -0.7661   -3.0014    1.2060 H   0  0  0  0  0  0  0  0  0  0  0  0
   -1.5819   -1.8432   -2.0394 H   0  0  0  0  0  0  0  0  0  0  0  0
   -3.2234   -2.2409   -1.4817 H   0  0  0  0  0  0  0  0  0  0  0  0
   -3.7294   -0.9578    0.6162 H   0  0  0  0  0  0  0  0  0  0  0  0
   -3.0911   -2.2585    1.5909 H   0  0  0  0  0  0  0  0  0  0  0  0
   -3.7429    0.1371   -1.1616 H   0  0  0  0  0  0  0  0  0  0  0  0
   -3.1151   -0.1010   -2.7745 H   0  0  0  0  0  0  0  0  0  0  0  0
   -0.2344    1.9080   -2.4160 H   0  0  0  0  0  0  0  0  0  0  0  0
   -0.7669    0.4338   -3.2243 H   0  0  0  0  0  0  0  0  0  0  0  0
   -1.7948    1.8981   -3.3097 H   0  0  0  0  0  0  0  0  0  0  0  0
   -1.4340    2.7420   -0.6021 H   0  0  0  0  0  0  0  0  0  0  0  0
   -3.0968    2.5495   -1.2081 H   0  0  0  0  0  0  0  0  0  0  0  0
   -3.6744    1.1163    0.6968 H   0  0  0  0  0  0  0  0  0  0  0  0
   -2.9569    2.5953    1.2873 H   0  0  0  0  0  0  0  0  0  0  0  0
   -0.1762    1.1379    2.8806 H   0  0  0  0  0  0  0  0  0  0  0  0
   -0.5865    2.5747    1.9504 H   0  0  0  0  0  0  0  0  0  0  0  0
   -1.6862    2.0316    3.2614 H   0  0  0  0  0  0  0  0  0  0  0  0
   -1.4625   -0.8039    2.6627 H   0  0  0  0  0  0  0  0  0  0  0  0
   -3.0802   -0.0837    2.8160 H   0  0  0  0  0  0  0  0  0  0  0  0
    0.7207    1.8266   -0.0940 N   0  0  0  0  0  0  0  0  0  0  0  0
    1.6465    2.5788   -0.0553 C   0  0  0  0  0  0  0  0  0  0  0  0
    2.8819    3.6110   -0.0036 S   0  0  0  0  0  0  0  0  0  0  0  0
  1  3  1  0  0  0  0
  2  1  1  0  0  0  0
  2  4  1  0  0  0  0
  4  8  1  0  0  0  0
  4  3  1  0  0  0  0
  5 10  1  1  0  0  0
  5 12  1  0  0  0  0
  5  1  9  0  0  0  0
  6 14  1  6  0  0  0
  6 15  1  0  0  0  0
  6  1  9  0  0  0  0
  7 18  1  0  0  0  0
  7 17  1  1  0  0  0
  7  1  9  0  0  0  0
  8 19  1  0  0  0  0
  8 21  1  0  0  0  0
  9  4  1  0  0  0  0
  9 22  1  0  0  0  0
 10 27  1  0  0  0  0
 11  5  1  0  0  0  0
 12 31  1  0  0  0  0
 12 18  1  0  0  0  0
 13  6  1  0  0  0  0
 13 11  1  0  0  0  0
 13 32  1  0  0  0  0
 14 34  1  0  0  0  0
 15 37  1  0  0  0  0
 15 16  1  0  0  0  0
 16 40  1  0  0  0  0
 16  7  1  0  0  0  0
 17 41  1  0  0  0  0
 17 43  1  0  0  0  0
 18 44  1  0  0  0  0
 18 45  1  0  0  0  0
 20  8  1  0  0  0  0
 23  9  1  0  0  0  0
 24  9  1  0  0  0  0
 25 10  1  0  0  0  0
 26 10  1  0  0  0  0
 28 11  1  0  0  0  0
 29 11  1  0  0  0  0
 30 12  1  0  0  0  0
 33 13  1  0  0  0  0
 35 14  1  0  0  0  0
 36 14  1  0  0  0  0
 38 15  1  0  0  0  0
 39 16  1  0  0  0  0
 42 17  1  0  0  0  0
 46 47  2  0  0  0  0
 46  1  1  0  0  0  0
 47 48  2  0  0  0  0
M  END
$$$$
