
 OpenBabel02072512503D

 48 50  0  0  0  0  0  0  0  0999 V2000
    1.7257    1.3622    2.8877 Fe  0  0  0  0  0  0  0  0  0  0  0  0
    1.8401    1.8525    0.5563 S   0  0  0  0  0  0  0  0  0  0  0  0
    1.7185    3.6944    3.3813 S   0  0  0  0  0  1  0  0  0  0  0  0
    1.6168    3.8897    1.2338 Si  0  0  0  0  0  0  0  0  0  0  0  0
    4.0998    1.0701    3.0879 N   0  0  2  0  0  0  0  0  0  0  0  0
    2.0740   -0.9621    2.7376 N   0  0  2  0  0  0  0  0  0  0  0  0
    2.0651    0.7001    5.1185 N   0  0  2  0  0  0  0  0  0  0  0  0
    3.0166    4.9875    0.5914 C   0  0  0  0  0  0  0  0  0  0  0  0
   -0.0349    4.6108    0.6913 C   0  0  0  0  0  0  0  0  0  0  0  0
    4.8003    2.2495    2.5426 C   0  0  0  0  0  0  0  0  0  0  0  0
    4.3587   -0.1047    2.2286 C   0  0  0  0  0  0  0  0  0  0  0  0
    4.4793    0.8551    4.5081 C   0  0  0  0  0  0  0  0  0  0  0  0
    3.5100   -1.3142    2.6213 C   0  0  0  0  0  0  0  0  0  0  0  0
    1.3136   -1.4267    1.5595 C   0  0  0  0  0  0  0  0  0  0  0  0
    1.4533   -1.4537    3.9862 C   0  0  0  0  0  0  0  0  0  0  0  0
    2.0413   -0.7822    5.2316 C   0  0  0  0  0  0  0  0  0  0  0  0
    0.9830    1.3051    5.9218 C   0  0  0  0  0  0  0  0  0  0  0  0
    3.3721    1.2907    5.4698 C   0  0  0  0  0  0  0  0  0  0  0  0
    3.9986    4.6315    0.9161 H   0  0  0  0  0  0  0  0  0  0  0  0
    3.0043    5.0138   -0.5052 H   0  0  0  0  0  0  0  0  0  0  0  0
    2.8860    6.0121    0.9611 H   0  0  0  0  0  0  0  0  0  0  0  0
   -0.1506    5.6305    1.0792 H   0  0  0  0  0  0  0  0  0  0  0  0
   -0.0935    4.6470   -0.4036 H   0  0  0  0  0  0  0  0  0  0  0  0
   -0.8629    4.0019    1.0651 H   0  0  0  0  0  0  0  0  0  0  0  0
    5.8915    2.0961    2.5439 H   0  0  0  0  0  0  0  0  0  0  0  0
    4.4537    2.4205    1.5236 H   0  0  0  0  0  0  0  0  0  0  0  0
    4.5434    3.1245    3.1408 H   0  0  0  0  0  0  0  0  0  0  0  0
    4.0992    0.1995    1.2113 H   0  0  0  0  0  0  0  0  0  0  0  0
    5.4258   -0.3845    2.2438 H   0  0  0  0  0  0  0  0  0  0  0  0
    4.7306   -0.1968    4.6643 H   0  0  0  0  0  0  0  0  0  0  0  0
    5.3900    1.4179    4.7477 H   0  0  0  0  0  0  0  0  0  0  0  0
    3.8586   -1.7385    3.5662 H   0  0  0  0  0  0  0  0  0  0  0  0
    3.6508   -2.1019    1.8704 H   0  0  0  0  0  0  0  0  0  0  0  0
    0.3087   -1.0049    1.6040 H   0  0  0  0  0  0  0  0  0  0  0  0
    1.7954   -1.0543    0.6540 H   0  0  0  0  0  0  0  0  0  0  0  0
    1.2663   -2.5265    1.5267 H   0  0  0  0  0  0  0  0  0  0  0  0
    0.3920   -1.2100    3.9173 H   0  0  0  0  0  0  0  0  0  0  0  0
    1.5575   -2.5479    4.0781 H   0  0  0  0  0  0  0  0  0  0  0  0
    3.0536   -1.1473    5.4218 H   0  0  0  0  0  0  0  0  0  0  0  0
    1.4465   -1.0849    6.1024 H   0  0  0  0  0  0  0  0  0  0  0  0
    0.9463    2.3781    5.7275 H   0  0  0  0  0  0  0  0  0  0  0  0
    0.0322    0.8780    5.6020 H   0  0  0  0  0  0  0  0  0  0  0  0
    1.1403    1.1244    6.9966 H   0  0  0  0  0  0  0  0  0  0  0  0
    3.2518    2.3751    5.4059 H   0  0  0  0  0  0  0  0  0  0  0  0
    3.6632    1.0373    6.5033 H   0  0  0  0  0  0  0  0  0  0  0  0
   -0.1907    0.9099    3.1077 N   0  0  0  0  0  0  0  0  0  0  0  0
   -1.1360    1.5813    2.7562 N   0  3  0  0  0  0  0  0  0  0  0  0
   -2.0622    2.1907    2.4391 N   0  5  0  0  0  0  0  0  0  0  0  0
  1 46  1  0  0  0  0
  1  2  1  0  0  0  0
  2  4  1  0  0  0  0
  4  3  1  0  0  0  0
  5 10  1  6  0  0  0
  5 12  1  0  0  0  0
  5  1  9  0  0  0  0
  6 14  1  6  0  0  0
  6 15  1  0  0  0  0
  6  1  9  0  0  0  0
  7 16  1  0  0  0  0
  7 18  1  0  0  0  0
  7 17  1  1  0  0  0
  7  1  9  0  0  0  0
  8 19  1  0  0  0  0
  8 21  1  0  0  0  0
  8  4  1  0  0  0  0
  9 24  1  0  0  0  0
  9 22  1  0  0  0  0
  9  4  1  0  0  0  0
 10 25  1  0  0  0  0
 10 27  1  0  0  0  0
 11 29  1  0  0  0  0
 11 13  1  0  0  0  0
 11  5  1  0  0  0  0
 12 30  1  0  0  0  0
 12 31  1  0  0  0  0
 12 18  1  0  0  0  0
 13  6  1  0  0  0  0
 13 32  1  0  0  0  0
 14 34  1  0  0  0  0
 15 38  1  0  0  0  0
 15 16  1  0  0  0  0
 16 39  1  0  0  0  0
 16 40  1  0  0  0  0
 17 43  1  0  0  0  0
 18 45  1  0  0  0  0
 20  8  1  0  0  0  0
 23  9  1  0  0  0  0
 26 10  1  0  0  0  0
 28 11  1  0  0  0  0
 33 13  1  0  0  0  0
 35 14  1  0  0  0  0
 36 14  1  0  0  0  0
 37 15  1  0  0  0  0
 41 17  1  0  0  0  0
 42 17  1  0  0  0  0
 44 18  1  0  0  0  0
 47 46  2  0  0  0  0
 48 47  2  0  0  0  0
M  RAD  1   3   2
M  CHG  2  47   1  48  -1
M  END
$$$$
