
 OpenBabel02052520063D

 46 49  0  0  0  0  0  0  0  0999 V2000
    0.0106   -0.3134   -0.0049 Fe  0  0  0  0  0  0  0  0  0  0  0  0
   -1.5901    0.1487   -1.6901 S   0  0  0  0  0  0  0  0  0  0  0  0
   -1.5936    0.0976    1.6908 S   0  0  0  0  0  0  0  0  0  0  0  0
   -2.9341    0.0427   -0.0021 Si  0  0  0  0  0  0  0  0  0  0  0  0
    0.8228    1.9405   -0.0301 N   0  0  2  0  0  0  0  0  0  0  0  0
    1.8915   -0.3611   -1.4234 N   0  0  2  0  0  0  0  0  0  0  0  0
    1.8306   -0.3296    1.4773 N   0  0  2  0  0  0  0  0  0  0  0  0
   -4.0912    1.5357    0.0228 C   0  0  0  0  0  0  0  0  0  0  0  0
   -3.8892   -1.5765   -0.0286 C   0  0  0  0  0  0  0  0  0  0  0  0
   -0.2911    2.8920    0.1603 C   0  0  0  0  0  0  0  0  0  0  0  0
    1.3672    2.0804   -1.3976 C   0  0  0  0  0  0  0  0  0  0  0  0
    1.8491    2.1304    1.0275 C   0  0  0  0  0  0  0  0  0  0  0  0
    2.3976    1.0014   -1.7268 C   0  0  0  0  0  0  0  0  0  0  0  0
    1.4968   -1.0616   -2.6653 C   0  0  0  0  0  0  0  0  0  0  0  0
    2.8620   -1.1716   -0.6547 C   0  0  0  0  0  0  0  0  0  0  0  0
    3.0995   -0.6143    0.7527 C   0  0  0  0  0  0  0  0  0  0  0  0
    1.5780   -1.3513    2.5179 C   0  0  0  0  0  0  0  0  0  0  0  0
    1.8034    1.0212    2.0785 C   0  0  0  0  0  0  0  0  0  0  0  0
   -3.5246    2.4719    0.0533 H   0  0  0  0  0  0  0  0  0  0  0  0
   -4.7234    1.5436   -0.8734 H   0  0  0  0  0  0  0  0  0  0  0  0
   -4.7414    1.4986    0.9053 H   0  0  0  0  0  0  0  0  0  0  0  0
   -4.5223   -1.6741    0.8615 H   0  0  0  0  0  0  0  0  0  0  0  0
   -4.5228   -1.6435   -0.9213 H   0  0  0  0  0  0  0  0  0  0  0  0
   -3.1716   -2.4032   -0.0432 H   0  0  0  0  0  0  0  0  0  0  0  0
    0.0560    3.9304    0.0379 H   0  0  0  0  0  0  0  0  0  0  0  0
   -1.0691    2.6725   -0.5715 H   0  0  0  0  0  0  0  0  0  0  0  0
   -0.7131    2.7520    1.1556 H   0  0  0  0  0  0  0  0  0  0  0  0
    0.5164    1.9864   -2.0767 H   0  0  0  0  0  0  0  0  0  0  0  0
    1.8187    3.0758   -1.5467 H   0  0  0  0  0  0  0  0  0  0  0  0
    2.8401    2.1841    0.5704 H   0  0  0  0  0  0  0  0  0  0  0  0
    1.7011    3.0934    1.5315 H   0  0  0  0  0  0  0  0  0  0  0  0
    3.3243    1.1754   -1.1742 H   0  0  0  0  0  0  0  0  0  0  0  0
    2.6636    1.0809   -2.7882 H   0  0  0  0  0  0  0  0  0  0  0  0
    0.9895   -1.9901   -2.4024 H   0  0  0  0  0  0  0  0  0  0  0  0
    0.7925   -0.4371   -3.2170 H   0  0  0  0  0  0  0  0  0  0  0  0
    2.3766   -1.2697   -3.2940 H   0  0  0  0  0  0  0  0  0  0  0  0
    2.4363   -2.1726   -0.5765 H   0  0  0  0  0  0  0  0  0  0  0  0
    3.8263   -1.2412   -1.1856 H   0  0  0  0  0  0  0  0  0  0  0  0
    3.7012    0.2971    0.7069 H   0  0  0  0  0  0  0  0  0  0  0  0
    3.6985   -1.3401    1.3157 H   0  0  0  0  0  0  0  0  0  0  0  0
    0.5768   -1.2062    2.9264 H   0  0  0  0  0  0  0  0  0  0  0  0
    1.6050   -2.3384    2.0582 H   0  0  0  0  0  0  0  0  0  0  0  0
    2.3279   -1.2828    3.3214 H   0  0  0  0  0  0  0  0  0  0  0  0
    0.8673    1.0962    2.6367 H   0  0  0  0  0  0  0  0  0  0  0  0
    2.6366    1.1561    2.7887 H   0  0  0  0  0  0  0  0  0  0  0  0
   -0.0549   -2.6745   -0.0436 Cl  0  0  0  0  0  0  0  0  0  0  0  0
  1  3  1  0  0  0  0
  2  1  1  0  0  0  0
  2  4  1  0  0  0  0
  4  8  1  0  0  0  0
  4  3  1  0  0  0  0
  5 10  1  1  0  0  0
  5 12  1  0  0  0  0
  5  1  9  0  0  0  0
  6 14  1  6  0  0  0
  6 15  1  0  0  0  0
  6  1  9  0  0  0  0
  7 18  1  0  0  0  0
  7 17  1  1  0  0  0
  7  1  9  0  0  0  0
  8 19  1  0  0  0  0
  8 21  1  0  0  0  0
  9  4  1  0  0  0  0
  9 22  1  0  0  0  0
 10 27  1  0  0  0  0
 11  5  1  0  0  0  0
 12 31  1  0  0  0  0
 12 18  1  0  0  0  0
 13  6  1  0  0  0  0
 13 11  1  0  0  0  0
 13 32  1  0  0  0  0
 14 34  1  0  0  0  0
 15 37  1  0  0  0  0
 15 16  1  0  0  0  0
 16 40  1  0  0  0  0
 16  7  1  0  0  0  0
 17 41  1  0  0  0  0
 17 43  1  0  0  0  0
 18 44  1  0  0  0  0
 18 45  1  0  0  0  0
 20  8  1  0  0  0  0
 23  9  1  0  0  0  0
 24  9  1  0  0  0  0
 25 10  1  0  0  0  0
 26 10  1  0  0  0  0
 28 11  1  0  0  0  0
 29 11  1  0  0  0  0
 30 12  1  0  0  0  0
 33 13  1  0  0  0  0
 35 14  1  0  0  0  0
 36 14  1  0  0  0  0
 38 15  1  0  0  0  0
 39 16  1  0  0  0  0
 42 17  1  0  0  0  0
 46  1  1  0  0  0  0
M  END
$$$$
