
 OpenBabel02052520063D

 46 49  0  0  0  0  0  0  0  0999 V2000
   -0.0328   -0.0207    0.4782 Fe  0  0  0  0  0  0  0  0  0  0  0  0
    1.6112    1.6873    0.1739 S   0  0  0  0  0  0  0  0  0  0  0  0
    1.6187   -1.6919    0.0308 S   0  0  0  0  0  0  0  0  0  0  0  0
    2.9513   -0.0001    0.1073 Si  0  0  0  0  0  0  0  0  0  0  0  0
   -0.7818    0.1444   -1.8104 N   0  0  2  0  0  0  0  0  0  0  0  0
   -1.9081    1.3887    0.5350 N   0  0  2  0  0  0  0  0  0  0  0  0
   -1.8306   -1.5057    0.3128 N   0  0  2  0  0  0  0  0  0  0  0  0
    4.0518    0.0603   -1.4292 C   0  0  0  0  0  0  0  0  0  0  0  0
    4.0191   -0.0607    1.6591 C   0  0  0  0  0  0  0  0  0  0  0  0
    0.3641    0.0178   -2.7337 C   0  0  0  0  0  0  0  0  0  0  0  0
   -1.3273    1.5177   -1.8809 C   0  0  0  0  0  0  0  0  0  0  0  0
   -1.7948   -0.9041   -2.1007 C   0  0  0  0  0  0  0  0  0  0  0  0
   -2.3857    1.7860   -0.8084 C   0  0  0  0  0  0  0  0  0  0  0  0
   -1.4969    2.5553    1.3417 C   0  0  0  0  0  0  0  0  0  0  0  0
   -2.8701    0.5557    1.2869 C   0  0  0  0  0  0  0  0  0  0  0  0
   -3.1031   -0.8028    0.6204 C   0  0  0  0  0  0  0  0  0  0  0  0
   -1.5568   -2.5549    1.3158 C   0  0  0  0  0  0  0  0  0  0  0  0
   -1.7702   -2.0304   -1.0635 C   0  0  0  0  0  0  0  0  0  0  0  0
    3.4545    0.0706   -2.3464 H   0  0  0  0  0  0  0  0  0  0  0  0
    4.6785    0.9605   -1.4159 H   0  0  0  0  0  0  0  0  0  0  0  0
    4.7089   -0.8176   -1.4593 H   0  0  0  0  0  0  0  0  0  0  0  0
    4.6596   -0.9511    1.6567 H   0  0  0  0  0  0  0  0  0  0  0  0
    4.6570    0.8291    1.7273 H   0  0  0  0  0  0  0  0  0  0  0  0
    3.3769   -0.0966    2.5449 H   0  0  0  0  0  0  0  0  0  0  0  0
    0.0510    0.1892   -3.7762 H   0  0  0  0  0  0  0  0  0  0  0  0
    1.1231    0.7475   -2.4508 H   0  0  0  0  0  0  0  0  0  0  0  0
    0.7963   -0.9779   -2.6296 H   0  0  0  0  0  0  0  0  0  0  0  0
   -0.4796    2.1889   -1.7209 H   0  0  0  0  0  0  0  0  0  0  0  0
   -1.7512    1.7287   -2.8773 H   0  0  0  0  0  0  0  0  0  0  0  0
   -2.7874   -0.4493   -2.1468 H   0  0  0  0  0  0  0  0  0  0  0  0
   -1.6192   -1.3381   -3.0928 H   0  0  0  0  0  0  0  0  0  0  0  0
   -3.3118    1.2527   -1.0390 H   0  0  0  0  0  0  0  0  0  0  0  0
   -2.6421    2.8531   -0.8258 H   0  0  0  0  0  0  0  0  0  0  0  0
   -0.9762    2.1900    2.2279 H   0  0  0  0  0  0  0  0  0  0  0  0
   -0.7984    3.1633    0.7649 H   0  0  0  0  0  0  0  0  0  0  0  0
   -2.3676    3.1659    1.6288 H   0  0  0  0  0  0  0  0  0  0  0  0
   -2.4219    0.3949    2.2674 H   0  0  0  0  0  0  0  0  0  0  0  0
   -3.8354    1.0744    1.4119 H   0  0  0  0  0  0  0  0  0  0  0  0
   -3.6824   -0.6852   -0.2987 H   0  0  0  0  0  0  0  0  0  0  0  0
   -3.7214   -1.4165    1.2878 H   0  0  0  0  0  0  0  0  0  0  0  0
   -0.5861   -3.0067    1.1072 H   0  0  0  0  0  0  0  0  0  0  0  0
   -1.4924   -2.0789    2.2943 H   0  0  0  0  0  0  0  0  0  0  0  0
   -2.3403   -3.3285    1.3067 H   0  0  0  0  0  0  0  0  0  0  0  0
   -0.8265   -2.5744   -1.1506 H   0  0  0  0  0  0  0  0  0  0  0  0
   -2.5943   -2.7352   -1.2664 H   0  0  0  0  0  0  0  0  0  0  0  0
   -0.2837   -0.0858    2.2834 F   0  0  0  0  0  0  0  0  0  0  0  0
  1 46  1  0  0  0  0
  2  1  1  0  0  0  0
  3  4  1  0  0  0  0
  3  1  1  0  0  0  0
  4  2  1  0  0  0  0
  4  9  1  0  0  0  0
  5 10  1  6  0  0  0
  5  1  9  0  0  0  0
  6 15  1  0  0  0  0
  6 14  1  1  0  0  0
  6  1  9  0  0  0  0
  7 16  1  0  0  0  0
  7 17  1  1  0  0  0
  7  1  9  0  0  0  0
  8 20  1  0  0  0  0
  8  4  1  0  0  0  0
  9 23  1  0  0  0  0
  9 24  1  0  0  0  0
 10 27  1  0  0  0  0
 10 26  1  0  0  0  0
 11  5  1  0  0  0  0
 11 28  1  0  0  0  0
 11 13  1  0  0  0  0
 12  5  1  0  0  0  0
 12 18  1  0  0  0  0
 13  6  1  0  0  0  0
 14 36  1  0  0  0  0
 14 34  1  0  0  0  0
 15 38  1  0  0  0  0
 15 37  1  0  0  0  0
 16 15  1  0  0  0  0
 16 40  1  0  0  0  0
 17 42  1  0  0  0  0
 18  7  1  0  0  0  0
 19  8  1  0  0  0  0
 21  8  1  0  0  0  0
 22  9  1  0  0  0  0
 25 10  1  0  0  0  0
 29 11  1  0  0  0  0
 30 12  1  0  0  0  0
 31 12  1  0  0  0  0
 32 13  1  0  0  0  0
 33 13  1  0  0  0  0
 35 14  1  0  0  0  0
 39 16  1  0  0  0  0
 41 17  1  0  0  0  0
 43 17  1  0  0  0  0
 44 18  1  0  0  0  0
 45 18  1  0  0  0  0
M  END
$$$$
