
 OpenBabel02072512503D

 86 92  0  0  0  0  0  0  0  0999 V2000
    1.5864   -0.0880    0.5119 Fe  0  0  0  0  0  0  0  0  0  0  0  0
    0.0857    0.7503    1.3097 O   0  0  0  0  0  0  0  0  0  0  0  0
    1.0000   -0.3749   -1.2675 O   0  0  0  0  0  1  0  0  0  0  0  0
    2.8602    0.7385    2.2758 N   0  0  1  0  0  0  0  0  0  0  0  0
    3.7927   -0.5011   -0.1442 N   0  0  2  0  0  0  0  0  0  0  0  0
    2.3794    2.0124   -0.2675 N   0  0  2  0  0  0  0  0  0  0  0  0
   -1.4779    0.8274    0.8164 Si  0  0  0  0  0  0  0  0  0  0  0  0
   -0.5701   -0.6514   -1.6542 Si  0  0  0  0  0  0  0  0  0  0  0  0
   -1.6091    0.2985   -0.7598 O   0  0  0  0  0  0  0  0  0  0  0  0
    4.2850    0.3394    2.1529 C   0  0  0  0  0  0  0  0  0  0  0  0
    4.6722    0.0047    3.1235 H   0  0  0  0  0  0  0  0  0  0  0  0
    4.8831    1.2113    1.8765 H   0  0  0  0  0  0  0  0  0  0  0  0
    4.4783   -0.7898    1.1313 C   0  0  0  0  0  0  0  0  0  0  0  0
    5.5559   -0.9687    0.9798 H   0  0  0  0  0  0  0  0  0  0  0  0
    4.0250   -1.7030    1.5214 H   0  0  0  0  0  0  0  0  0  0  0  0
    4.3725    0.6510   -0.8782 C   0  0  0  0  0  0  0  0  0  0  0  0
    4.9452    0.3000   -1.7463 H   0  0  0  0  0  0  0  0  0  0  0  0
    5.0909    1.1648   -0.2343 H   0  0  0  0  0  0  0  0  0  0  0  0
    3.2911    1.6209   -1.3582 C   0  0  0  0  0  0  0  0  0  0  0  0
    3.7664    2.5007   -1.8244 H   0  0  0  0  0  0  0  0  0  0  0  0
    2.6681    1.1223   -2.1038 H   0  0  0  0  0  0  0  0  0  0  0  0
    3.0306    2.7653    0.8292 C   0  0  0  0  0  0  0  0  0  0  0  0
    2.7431    3.8239    0.7921 H   0  0  0  0  0  0  0  0  0  0  0  0
    4.1153    2.7454    0.6970 H   0  0  0  0  0  0  0  0  0  0  0  0
    2.6403    2.1987    2.1961 C   0  0  0  0  0  0  0  0  0  0  0  0
    3.1899    2.7300    2.9910 H   0  0  0  0  0  0  0  0  0  0  0  0
    1.5690    2.3496    2.3467 H   0  0  0  0  0  0  0  0  0  0  0  0
    2.2467    0.1921    3.5029 C   0  0  0  0  0  0  0  0  0  0  0  0
    2.4099   -0.8858    3.5272 H   0  0  0  0  0  0  0  0  0  0  0  0
    1.1714    0.3728    3.4602 H   0  0  0  0  0  0  0  0  0  0  0  0
    2.6771    0.6577    4.4034 H   0  0  0  0  0  0  0  0  0  0  0  0
    3.7263   -1.6963   -1.0083 C   0  0  0  0  0  0  0  0  0  0  0  0
    4.7337   -2.0416   -1.2886 H   0  0  0  0  0  0  0  0  0  0  0  0
    3.1482   -1.4441   -1.8980 H   0  0  0  0  0  0  0  0  0  0  0  0
    3.1896   -2.4833   -0.4772 H   0  0  0  0  0  0  0  0  0  0  0  0
    1.2207    2.7522   -0.7975 C   0  0  0  0  0  0  0  0  0  0  0  0
    1.5387    3.6707   -1.3159 H   0  0  0  0  0  0  0  0  0  0  0  0
    0.5540    3.0102    0.0239 H   0  0  0  0  0  0  0  0  0  0  0  0
    0.6778    2.1086   -1.4891 H   0  0  0  0  0  0  0  0  0  0  0  0
   -2.5274   -0.2532    1.9224 C   0  0  0  0  0  0  0  0  0  0  0  0
   -1.9193   -1.2196    2.7392 C   0  0  0  0  0  0  0  0  0  0  0  0
   -0.8368   -1.2615    2.7904 H   0  0  0  0  0  0  0  0  0  0  0  0
   -2.6815   -2.1359    3.4655 C   0  0  0  0  0  0  0  0  0  0  0  0
   -2.1862   -2.8928    4.0672 H   0  0  0  0  0  0  0  0  0  0  0  0
   -4.0754   -2.0884    3.3956 C   0  0  0  0  0  0  0  0  0  0  0  0
   -4.6739   -2.8030    3.9555 H   0  0  0  0  0  0  0  0  0  0  0  0
   -4.7019   -1.1209    2.6036 C   0  0  0  0  0  0  0  0  0  0  0  0
   -5.7873   -1.0788    2.5529 H   0  0  0  0  0  0  0  0  0  0  0  0
   -3.9325   -0.2135    1.8737 C   0  0  0  0  0  0  0  0  0  0  0  0
   -4.4309    0.5319    1.2566 H   0  0  0  0  0  0  0  0  0  0  0  0
   -2.1098    2.5938    0.7904 C   0  0  0  0  0  0  0  0  0  0  0  0
   -2.3909    3.2799    1.9852 C   0  0  0  0  0  0  0  0  0  0  0  0
   -2.2930    2.7631    2.9384 H   0  0  0  0  0  0  0  0  0  0  0  0
   -2.8097    4.6120    1.9726 C   0  0  0  0  0  0  0  0  0  0  0  0
   -3.0242    5.1245    2.9074 H   0  0  0  0  0  0  0  0  0  0  0  0
   -2.9599    5.2835    0.7563 C   0  0  0  0  0  0  0  0  0  0  0  0
   -3.2882    6.3200    0.7433 H   0  0  0  0  0  0  0  0  0  0  0  0
   -2.6955    4.6169   -0.4429 C   0  0  0  0  0  0  0  0  0  0  0  0
   -2.8205    5.1335   -1.3916 H   0  0  0  0  0  0  0  0  0  0  0  0
   -2.2763    3.2848   -0.4233 C   0  0  0  0  0  0  0  0  0  0  0  0
   -2.0781    2.7671   -1.3588 H   0  0  0  0  0  0  0  0  0  0  0  0
   -0.8266   -0.1140   -3.4305 C   0  0  0  0  0  0  0  0  0  0  0  0
    0.2143   -0.2167   -4.3698 C   0  0  0  0  0  0  0  0  0  0  0  0
    1.1751   -0.6221   -4.0587 H   0  0  0  0  0  0  0  0  0  0  0  0
    0.0404    0.2021   -5.6903 C   0  0  0  0  0  0  0  0  0  0  0  0
    0.8576    0.1143   -6.4026 H   0  0  0  0  0  0  0  0  0  0  0  0
   -1.1845    0.7391   -6.0949 C   0  0  0  0  0  0  0  0  0  0  0  0
   -1.3228    1.0679   -7.1220 H   0  0  0  0  0  0  0  0  0  0  0  0
   -2.2300    0.8556   -5.1753 C   0  0  0  0  0  0  0  0  0  0  0  0
   -3.1826    1.2781   -5.4856 H   0  0  0  0  0  0  0  0  0  0  0  0
   -2.0500    0.4326   -3.8567 C   0  0  0  0  0  0  0  0  0  0  0  0
   -2.8635    0.5371   -3.1427 H   0  0  0  0  0  0  0  0  0  0  0  0
   -0.9760   -2.4359   -1.2710 C   0  0  0  0  0  0  0  0  0  0  0  0
   -2.1770   -2.7961   -0.6361 C   0  0  0  0  0  0  0  0  0  0  0  0
   -2.9040   -2.0286   -0.3864 H   0  0  0  0  0  0  0  0  0  0  0  0
   -2.4355   -4.1228   -0.2862 C   0  0  0  0  0  0  0  0  0  0  0  0
   -3.3605   -4.3756    0.2254 H   0  0  0  0  0  0  0  0  0  0  0  0
   -1.4972   -5.1153   -0.5719 C   0  0  0  0  0  0  0  0  0  0  0  0
   -1.6918   -6.1470   -0.2901 H   0  0  0  0  0  0  0  0  0  0  0  0
   -0.2966   -4.7780   -1.2031 C   0  0  0  0  0  0  0  0  0  0  0  0
    0.4414   -5.5480   -1.4150 H   0  0  0  0  0  0  0  0  0  0  0  0
   -0.0400   -3.4503   -1.5437 C   0  0  0  0  0  0  0  0  0  0  0  0
    0.9095   -3.1921   -2.0084 H   0  0  0  0  0  0  0  0  0  0  0  0
    1.6220   -1.8872    1.3077 N   0  0  0  0  0  0  0  0  0  0  0  0
    0.9236   -2.7922    1.6969 N   0  3  0  0  0  0  0  0  0  0  0  0
    0.2983   -3.6764    2.0951 N   0  5  0  0  0  0  0  0  0  0  0  0
  1  2  1  0  0  0  0
  1 84  1  0  0  0  0
  4 28  1  1  0  0  0
  4  1  9  0  0  0  0
  5 32  1  6  0  0  0
  5 13  1  0  0  0  0
  5  1  9  0  0  0  0
  6 36  1  6  0  0  0
  6 22  1  0  0  0  0
  6  1  9  0  0  0  0
  7  2  1  0  0  0  0
  7 40  1  0  0  0  0
  8 73  1  0  0  0  0
  8  3  1  0  0  0  0
  8  9  1  0  0  0  0
  9  7  1  0  0  0  0
 10  4  1  0  0  0  0
 10 11  1  0  0  0  0
 12 10  1  0  0  0  0
 13 15  1  0  0  0  0
 13 10  1  0  0  0  0
 14 13  1  0  0  0  0
 16 18  1  0  0  0  0
 16  5  1  0  0  0  0
 17 16  1  0  0  0  0
 19 16  1  0  0  0  0
 19  6  1  0  0  0  0
 20 19  1  0  0  0  0
 21 19  1  0  0  0  0
 22 25  1  0  0  0  0
 23 22  1  0  0  0  0
 24 22  1  0  0  0  0
 25  4  1  0  0  0  0
 25 27  1  0  0  0  0
 25 26  1  0  0  0  0
 28 29  1  0  0  0  0
 28 31  1  0  0  0  0
 30 28  1  0  0  0  0
 32 35  1  0  0  0  0
 33 32  1  0  0  0  0
 34 32  1  0  0  0  0
 36 38  1  0  0  0  0
 37 36  1  0  0  0  0
 39 36  1  0  0  0  0
 40 41  2  0  0  0  0
 41 42  1  0  0  0  0
 41 43  1  0  0  0  0
 43 44  1  0  0  0  0
 45 43  2  0  0  0  0
 45 46  1  0  0  0  0
 47 45  1  0  0  0  0
 48 47  1  0  0  0  0
 49 40  1  0  0  0  0
 49 47  2  0  0  0  0
 50 49  1  0  0  0  0
 51  7  1  0  0  0  0
 51 52  2  0  0  0  0
 52 53  1  0  0  0  0
 54 52  1  0  0  0  0
 54 55  1  0  0  0  0
 56 54  2  0  0  0  0
 57 56  1  0  0  0  0
 58 60  2  0  0  0  0
 58 56  1  0  0  0  0
 59 58  1  0  0  0  0
 60 51  1  0  0  0  0
 61 60  1  0  0  0  0
 62  8  1  0  0  0  0
 63 64  1  0  0  0  0
 63 62  1  0  0  0  0
 65 63  2  0  0  0  0
 66 65  1  0  0  0  0
 67 65  1  0  0  0  0
 67 69  2  0  0  0  0
 68 67  1  0  0  0  0
 69 71  1  0  0  0  0
 70 69  1  0  0  0  0
 71 62  2  0  0  0  0
 71 72  1  0  0  0  0
 73 74  2  0  0  0  0
 74 75  1  0  0  0  0
 74 76  1  0  0  0  0
 76 77  1  0  0  0  0
 78 79  1  0  0  0  0
 78 76  2  0  0  0  0
 80 78  1  0  0  0  0
 81 80  1  0  0  0  0
 82 73  1  0  0  0  0
 82 80  2  0  0  0  0
 83 82  1  0  0  0  0
 84 85  2  0  0  0  0
 85 86  2  0  0  0  0
M  RAD  1   3   2
M  CHG  2  85   1  86  -1
M  END
$$$$
