
 OpenBabel02052520063D

 84 91  0  0  0  0  0  0  0  0999 V2000
   -1.6490   -0.2830    0.0299 Fe  0  0  0  0  0  0  0  0  0  0  0  0
   -0.2590   -1.5243   -0.1751 O   0  0  0  0  0  0  0  0  0  0  0  0
   -0.7777    1.3737   -0.0891 O   0  0  0  0  0  0  0  0  0  0  0  0
   -3.1186   -2.0309   -0.3947 N   0  0  1  0  0  0  0  0  0  0  0  0
   -3.7161    0.7744   -0.2088 N   0  0  2  0  0  0  0  0  0  0  0  0
   -1.9564   -0.1764   -2.2810 N   0  0  2  0  0  0  0  0  0  0  0  0
    1.3548   -1.3177    0.0760 Si  0  0  0  0  0  0  0  0  0  0  0  0
    0.7721    1.6832    0.3699 Si  0  0  0  0  0  0  0  0  0  0  0  0
    1.6756    0.2861    0.3816 O   0  0  0  0  0  0  0  0  0  0  0  0
   -4.5338   -1.5795   -0.3576 C   0  0  0  0  0  0  0  0  0  0  0  0
   -5.1499   -2.3073    0.1844 H   0  0  0  0  0  0  0  0  0  0  0  0
   -4.9307   -1.5494   -1.3757 H   0  0  0  0  0  0  0  0  0  0  0  0
   -4.6846   -0.2097    0.3188 C   0  0  0  0  0  0  0  0  0  0  0  0
   -5.7219    0.1456    0.2013 H   0  0  0  0  0  0  0  0  0  0  0  0
   -4.4722   -0.3120    1.3841 H   0  0  0  0  0  0  0  0  0  0  0  0
   -3.9681    1.1316   -1.6284 C   0  0  0  0  0  0  0  0  0  0  0  0
   -4.4060    2.1355   -1.6956 H   0  0  0  0  0  0  0  0  0  0  0  0
   -4.7141    0.4508   -2.0459 H   0  0  0  0  0  0  0  0  0  0  0  0
   -2.6846    1.0944   -2.4580 C   0  0  0  0  0  0  0  0  0  0  0  0
   -2.9221    1.2782   -3.5191 H   0  0  0  0  0  0  0  0  0  0  0  0
   -2.0091    1.8781   -2.1100 H   0  0  0  0  0  0  0  0  0  0  0  0
   -2.6942   -1.3676   -2.7670 C   0  0  0  0  0  0  0  0  0  0  0  0
   -2.2462   -1.7396   -3.6969 H   0  0  0  0  0  0  0  0  0  0  0  0
   -3.7195   -1.0861   -3.0190 H   0  0  0  0  0  0  0  0  0  0  0  0
   -2.6789   -2.4921   -1.7308 C   0  0  0  0  0  0  0  0  0  0  0  0
   -3.2994   -3.3319   -2.0852 H   0  0  0  0  0  0  0  0  0  0  0  0
   -1.6523   -2.8420   -1.6043 H   0  0  0  0  0  0  0  0  0  0  0  0
   -2.8561   -3.0855    0.6093 C   0  0  0  0  0  0  0  0  0  0  0  0
   -3.1974   -2.7407    1.5847 H   0  0  0  0  0  0  0  0  0  0  0  0
   -1.7783   -3.2441    0.6675 H   0  0  0  0  0  0  0  0  0  0  0  0
   -3.3692   -4.0210    0.3366 H   0  0  0  0  0  0  0  0  0  0  0  0
   -3.6631    1.9917    0.6303 C   0  0  0  0  0  0  0  0  0  0  0  0
   -4.6341    2.5109    0.6303 H   0  0  0  0  0  0  0  0  0  0  0  0
   -2.8809    2.6435    0.2403 H   0  0  0  0  0  0  0  0  0  0  0  0
   -3.3826    1.7127    1.6456 H   0  0  0  0  0  0  0  0  0  0  0  0
   -0.6168   -0.1006   -2.8949 C   0  0  0  0  0  0  0  0  0  0  0  0
   -0.6898    0.0755   -3.9794 H   0  0  0  0  0  0  0  0  0  0  0  0
   -0.0849   -1.0317   -2.7076 H   0  0  0  0  0  0  0  0  0  0  0  0
   -0.0587    0.7124   -2.4312 H   0  0  0  0  0  0  0  0  0  0  0  0
    1.8937   -2.3776    1.5174 C   0  0  0  0  0  0  0  0  0  0  0  0
    1.0039   -2.6104    2.5832 C   0  0  0  0  0  0  0  0  0  0  0  0
    0.0058   -2.1823    2.5503 H   0  0  0  0  0  0  0  0  0  0  0  0
    1.3925   -3.3737    3.6857 C   0  0  0  0  0  0  0  0  0  0  0  0
    0.6942   -3.5381    4.5030 H   0  0  0  0  0  0  0  0  0  0  0  0
    2.6754   -3.9251    3.7390 C   0  0  0  0  0  0  0  0  0  0  0  0
    2.9778   -4.5213    4.5968 H   0  0  0  0  0  0  0  0  0  0  0  0
    3.5692   -3.7096    2.6874 C   0  0  0  0  0  0  0  0  0  0  0  0
    4.5676   -4.1391    2.7241 H   0  0  0  0  0  0  0  0  0  0  0  0
    3.1790   -2.9421    1.5877 C   0  0  0  0  0  0  0  0  0  0  0  0
    3.8814   -2.7869    0.7715 H   0  0  0  0  0  0  0  0  0  0  0  0
    2.3027   -1.7691   -1.4813 C   0  0  0  0  0  0  0  0  0  0  0  0
    2.4633   -3.1128   -1.8658 C   0  0  0  0  0  0  0  0  0  0  0  0
    2.1016   -3.9056   -1.2135 H   0  0  0  0  0  0  0  0  0  0  0  0
    3.0939   -3.4524   -3.0648 C   0  0  0  0  0  0  0  0  0  0  0  0
    3.2114   -4.4977   -3.3409 H   0  0  0  0  0  0  0  0  0  0  0  0
    3.5778   -2.4477   -3.9069 C   0  0  0  0  0  0  0  0  0  0  0  0
    4.0699   -2.7093   -4.8406 H   0  0  0  0  0  0  0  0  0  0  0  0
    3.4326   -1.1070   -3.5417 C   0  0  0  0  0  0  0  0  0  0  0  0
    3.8125   -0.3206   -4.1897 H   0  0  0  0  0  0  0  0  0  0  0  0
    2.8033   -0.7743   -2.3403 C   0  0  0  0  0  0  0  0  0  0  0  0
    2.6969    0.2715   -2.0664 H   0  0  0  0  0  0  0  0  0  0  0  0
    1.5194    2.8085   -0.9348 C   0  0  0  0  0  0  0  0  0  0  0  0
    0.7067    3.6483   -1.7160 C   0  0  0  0  0  0  0  0  0  0  0  0
   -0.3690    3.6469   -1.5532 H   0  0  0  0  0  0  0  0  0  0  0  0
    1.2535    4.4790   -2.6972 C   0  0  0  0  0  0  0  0  0  0  0  0
    0.6070    5.1218   -3.2903 H   0  0  0  0  0  0  0  0  0  0  0  0
    2.6328    4.4807   -2.9178 C   0  0  0  0  0  0  0  0  0  0  0  0
    3.0619    5.1231   -3.6828 H   0  0  0  0  0  0  0  0  0  0  0  0
    3.4597    3.6540   -2.1523 C   0  0  0  0  0  0  0  0  0  0  0  0
    4.5337    3.6516   -2.3219 H   0  0  0  0  0  0  0  0  0  0  0  0
    2.9064    2.8304   -1.1699 C   0  0  0  0  0  0  0  0  0  0  0  0
    3.5572    2.1843   -0.5850 H   0  0  0  0  0  0  0  0  0  0  0  0
    0.8628    2.4324    2.0764 C   0  0  0  0  0  0  0  0  0  0  0  0
    0.8632    1.6052    3.2144 C   0  0  0  0  0  0  0  0  0  0  0  0
    0.8378    0.5258    3.0971 H   0  0  0  0  0  0  0  0  0  0  0  0
    0.8876    2.1539    4.4968 C   0  0  0  0  0  0  0  0  0  0  0  0
    0.8852    1.4996    5.3650 H   0  0  0  0  0  0  0  0  0  0  0  0
    0.9144    3.5411    4.6648 C   0  0  0  0  0  0  0  0  0  0  0  0
    0.9348    3.9684    5.6646 H   0  0  0  0  0  0  0  0  0  0  0  0
    0.9198    4.3781    3.5465 C   0  0  0  0  0  0  0  0  0  0  0  0
    0.9479    5.4578    3.6733 H   0  0  0  0  0  0  0  0  0  0  0  0
    0.8956    3.8247    2.2645 C   0  0  0  0  0  0  0  0  0  0  0  0
    0.9125    4.4853    1.3995 H   0  0  0  0  0  0  0  0  0  0  0  0
   -2.0035   -0.4229    2.3756 Cl  0  0  0  0  0  0  0  0  0  0  0  0
  1 84  1  0  0  0  0
  2  1  1  0  0  0  0
  2  7  1  0  0  0  0
  3  1  1  0  0  0  0
  3  8  1  0  0  0  0
  4 10  1  0  0  0  0
  4 28  1  1  0  0  0
  4  1  9  0  0  0  0
  5 13  1  0  0  0  0
  5 32  1  1  0  0  0
  5  1  9  0  0  0  0
  6 36  1  6  0  0  0
  6  1  9  0  0  0  0
  7  9  1  0  0  0  0
  7 40  1  0  0  0  0
  8  9  1  0  0  0  0
  8 73  1  0  0  0  0
 10 11  1  0  0  0  0
 10 13  1  0  0  0  0
 12 10  1  0  0  0  0
 13 15  1  0  0  0  0
 14 13  1  0  0  0  0
 16  5  1  0  0  0  0
 17 16  1  0  0  0  0
 18 16  1  0  0  0  0
 19  6  1  0  0  0  0
 19 21  1  0  0  0  0
 19 16  1  0  0  0  0
 20 19  1  0  0  0  0
 22  6  1  0  0  0  0
 22 25  1  0  0  0  0
 23 22  1  0  0  0  0
 24 22  1  0  0  0  0
 25 27  1  0  0  0  0
 25  4  1  0  0  0  0
 26 25  1  0  0  0  0
 28 30  1  0  0  0  0
 28 29  1  0  0  0  0
 31 28  1  0  0  0  0
 32 35  1  0  0  0  0
 33 32  1  0  0  0  0
 34 32  1  0  0  0  0
 36 38  1  0  0  0  0
 36 39  1  0  0  0  0
 37 36  1  0  0  0  0
 40 49  1  0  0  0  0
 40 41  2  0  0  0  0
 41 43  1  0  0  0  0
 42 41  1  0  0  0  0
 43 45  2  0  0  0  0
 43 44  1  0  0  0  0
 45 46  1  0  0  0  0
 47 48  1  0  0  0  0
 47 45  1  0  0  0  0
 49 47  2  0  0  0  0
 50 49  1  0  0  0  0
 51  7  1  0  0  0  0
 52 51  1  0  0  0  0
 52 53  1  0  0  0  0
 54 52  2  0  0  0  0
 55 54  1  0  0  0  0
 56 58  2  0  0  0  0
 56 54  1  0  0  0  0
 57 56  1  0  0  0  0
 58 60  1  0  0  0  0
 59 58  1  0  0  0  0
 60 61  1  0  0  0  0
 60 51  2  0  0  0  0
 62  8  1  0  0  0  0
 63 64  1  0  0  0  0
 63 62  1  0  0  0  0
 65 63  2  0  0  0  0
 66 65  1  0  0  0  0
 67 65  1  0  0  0  0
 67 69  2  0  0  0  0
 68 67  1  0  0  0  0
 69 71  1  0  0  0  0
 70 69  1  0  0  0  0
 71 62  2  0  0  0  0
 71 72  1  0  0  0  0
 73 82  1  0  0  0  0
 73 74  2  0  0  0  0
 74 76  1  0  0  0  0
 75 74  1  0  0  0  0
 76 78  2  0  0  0  0
 76 77  1  0  0  0  0
 78 79  1  0  0  0  0
 80 81  1  0  0  0  0
 80 78  1  0  0  0  0
 82 80  2  0  0  0  0
 83 82  1  0  0  0  0
M  END
$$$$
