
 OpenBabel02052520063D

 85 92  0  0  0  0  0  0  0  0999 V2000
   -1.5961   -0.4767    0.2824 Fe  0  0  0  0  0  0  0  0  0  0  0  0
   -0.0453   -1.5098   -0.1482 O   0  0  0  0  0  0  0  0  0  0  0  0
   -1.0541    1.2724   -0.2656 O   0  0  0  0  0  0  0  0  0  0  0  0
   -2.7521   -2.4690    0.3904 N   0  0  1  0  0  0  0  0  0  0  0  0
   -3.8304    0.1946    0.3206 N   0  0  2  0  0  0  0  0  0  0  0  0
   -2.3608   -0.8167   -1.9363 N   0  0  2  0  0  0  0  0  0  0  0  0
    1.5176   -1.0420   -0.2116 Si  0  0  0  0  0  0  0  0  0  0  0  0
    0.4889    1.7881   -0.0890 Si  0  0  0  0  0  0  0  0  0  0  0  0
    1.6109    0.6126   -0.4534 O   0  0  0  0  0  0  0  0  0  0  0  0
   -4.1871   -2.2447    0.6896 C   0  0  0  0  0  0  0  0  0  0  0  0
   -4.5353   -2.9584    1.4473 H   0  0  0  0  0  0  0  0  0  0  0  0
   -4.7800   -2.4439   -0.2068 H   0  0  0  0  0  0  0  0  0  0  0  0
   -4.4409   -0.8216    1.2005 C   0  0  0  0  0  0  0  0  0  0  0  0
   -5.5253   -0.6573    1.3191 H   0  0  0  0  0  0  0  0  0  0  0  0
   -3.9536   -0.7055    2.1705 H   0  0  0  0  0  0  0  0  0  0  0  0
   -4.4196    0.2584   -1.0365 C   0  0  0  0  0  0  0  0  0  0  0  0
   -5.0424    1.1564   -1.1436 H   0  0  0  0  0  0  0  0  0  0  0  0
   -5.0915   -0.5915   -1.1810 H   0  0  0  0  0  0  0  0  0  0  0  0
   -3.3327    0.2766   -2.1158 C   0  0  0  0  0  0  0  0  0  0  0  0
   -3.8022    0.2468   -3.1140 H   0  0  0  0  0  0  0  0  0  0  0  0
   -2.7599    1.2027   -2.0264 H   0  0  0  0  0  0  0  0  0  0  0  0
   -2.9348   -2.1743   -2.0811 C   0  0  0  0  0  0  0  0  0  0  0  0
   -2.6138   -2.6284   -3.0276 H   0  0  0  0  0  0  0  0  0  0  0  0
   -4.0246   -2.1083   -2.1353 H   0  0  0  0  0  0  0  0  0  0  0  0
   -2.5046   -3.0885   -0.9281 C   0  0  0  0  0  0  0  0  0  0  0  0
   -3.0137   -4.0630   -1.0156 H   0  0  0  0  0  0  0  0  0  0  0  0
   -1.4260   -3.2455   -0.9879 H   0  0  0  0  0  0  0  0  0  0  0  0
   -2.0812   -3.2231    1.4693 C   0  0  0  0  0  0  0  0  0  0  0  0
   -2.2282   -2.6890    2.4082 H   0  0  0  0  0  0  0  0  0  0  0  0
   -1.0106   -3.2388    1.2612 H   0  0  0  0  0  0  0  0  0  0  0  0
   -2.4760   -4.2490    1.5401 H   0  0  0  0  0  0  0  0  0  0  0  0
   -3.8137    1.5201    0.9640 C   0  0  0  0  0  0  0  0  0  0  0  0
   -4.8350    1.8883    1.1518 H   0  0  0  0  0  0  0  0  0  0  0  0
   -3.2722    2.2121    0.3179 H   0  0  0  0  0  0  0  0  0  0  0  0
   -3.2623    1.4351    1.9008 H   0  0  0  0  0  0  0  0  0  0  0  0
   -1.1939   -0.6323   -2.8180 C   0  0  0  0  0  0  0  0  0  0  0  0
   -1.4916   -0.6358   -3.8789 H   0  0  0  0  0  0  0  0  0  0  0  0
   -0.4760   -1.4302   -2.6309 H   0  0  0  0  0  0  0  0  0  0  0  0
   -0.7163    0.3157   -2.5699 H   0  0  0  0  0  0  0  0  0  0  0  0
    2.3539   -1.4815    1.4052 C   0  0  0  0  0  0  0  0  0  0  0  0
    1.5775   -1.5502    2.5780 C   0  0  0  0  0  0  0  0  0  0  0  0
    0.5018   -1.3988    2.5181 H   0  0  0  0  0  0  0  0  0  0  0  0
    2.1761   -1.7792    3.8182 C   0  0  0  0  0  0  0  0  0  0  0  0
    1.5637   -1.8177    4.7161 H   0  0  0  0  0  0  0  0  0  0  0  0
    3.5602   -1.9504    3.9086 C   0  0  0  0  0  0  0  0  0  0  0  0
    4.0264   -2.1277    4.8751 H   0  0  0  0  0  0  0  0  0  0  0  0
    4.3448   -1.8947    2.7537 C   0  0  0  0  0  0  0  0  0  0  0  0
    5.4216   -2.0321    2.8194 H   0  0  0  0  0  0  0  0  0  0  0  0
    3.7432   -1.6624    1.5144 C   0  0  0  0  0  0  0  0  0  0  0  0
    4.3630   -1.6243    0.6206 H   0  0  0  0  0  0  0  0  0  0  0  0
    2.4055   -1.7940   -1.6819 C   0  0  0  0  0  0  0  0  0  0  0  0
    2.8733   -3.1197   -1.6574 C   0  0  0  0  0  0  0  0  0  0  0  0
    2.7799   -3.7056   -0.7448 H   0  0  0  0  0  0  0  0  0  0  0  0
    3.4718   -3.6962   -2.7799 C   0  0  0  0  0  0  0  0  0  0  0  0
    3.8307   -4.7219   -2.7394 H   0  0  0  0  0  0  0  0  0  0  0  0
    3.6134   -2.9516   -3.9537 C   0  0  0  0  0  0  0  0  0  0  0  0
    4.0800   -3.3974   -4.8289 H   0  0  0  0  0  0  0  0  0  0  0  0
    3.1611   -1.6302   -3.9972 C   0  0  0  0  0  0  0  0  0  0  0  0
    3.2781   -1.0449   -4.9063 H   0  0  0  0  0  0  0  0  0  0  0  0
    2.5661   -1.0587   -2.8704 C   0  0  0  0  0  0  0  0  0  0  0  0
    2.2282   -0.0257   -2.9035 H   0  0  0  0  0  0  0  0  0  0  0  0
    0.8057    3.1799   -1.2992 C   0  0  0  0  0  0  0  0  0  0  0  0
   -0.2392    4.0288   -1.7037 C   0  0  0  0  0  0  0  0  0  0  0  0
   -1.2393    3.8685   -1.3061 H   0  0  0  0  0  0  0  0  0  0  0  0
   -0.0177    5.0630   -2.6152 C   0  0  0  0  0  0  0  0  0  0  0  0
   -0.8387    5.7095   -2.9169 H   0  0  0  0  0  0  0  0  0  0  0  0
    1.2601    5.2634   -3.1437 C   0  0  0  0  0  0  0  0  0  0  0  0
    1.4357    6.0669   -3.8549 H   0  0  0  0  0  0  0  0  0  0  0  0
    2.3107    4.4258   -2.7599 C   0  0  0  0  0  0  0  0  0  0  0  0
    3.3046    4.5750   -3.1750 H   0  0  0  0  0  0  0  0  0  0  0  0
    2.0829    3.3944   -1.8467 C   0  0  0  0  0  0  0  0  0  0  0  0
    2.9011    2.7369   -1.5626 H   0  0  0  0  0  0  0  0  0  0  0  0
    0.7379    2.2241    1.7229 C   0  0  0  0  0  0  0  0  0  0  0  0
    1.9260    1.9050    2.4025 C   0  0  0  0  0  0  0  0  0  0  0  0
    2.7429    1.4375    1.8606 H   0  0  0  0  0  0  0  0  0  0  0  0
    2.0582    2.1357    3.7734 C   0  0  0  0  0  0  0  0  0  0  0  0
    2.9786    1.8588    4.2808 H   0  0  0  0  0  0  0  0  0  0  0  0
    1.0014    2.6969    4.4933 C   0  0  0  0  0  0  0  0  0  0  0  0
    1.1003    2.8711    5.5619 H   0  0  0  0  0  0  0  0  0  0  0  0
   -0.1887    3.0266    3.8377 C   0  0  0  0  0  0  0  0  0  0  0  0
   -1.0157    3.4606    4.3950 H   0  0  0  0  0  0  0  0  0  0  0  0
   -0.3160    2.7888    2.4673 C   0  0  0  0  0  0  0  0  0  0  0  0
   -1.2526    3.0273    1.9682 H   0  0  0  0  0  0  0  0  0  0  0  0
   -1.6240   -0.3666    2.1680 O   0  0  0  0  0  0  0  0  0  0  0  0
   -1.1015    0.3841    2.4979 H   0  0  0  0  0  0  0  0  0  0  0  0
  1 84  1  0  0  0  0
  2  1  1  0  0  0  0
  3  8  1  0  0  0  0
  3  1  1  0  0  0  0
  4 10  1  0  0  0  0
  4 28  1  1  0  0  0
  4  1  9  0  0  0  0
  5 32  1  1  0  0  0
  5 13  1  0  0  0  0
  5  1  9  0  0  0  0
  6 36  1  6  0  0  0
  6  1  9  0  0  0  0
  7  2  1  0  0  0  0
  7 40  1  0  0  0  0
  8 73  1  0  0  0  0
  9  7  1  0  0  0  0
  9  8  1  0  0  0  0
 10 13  1  0  0  0  0
 10 11  1  0  0  0  0
 12 10  1  0  0  0  0
 13 14  1  0  0  0  0
 13 15  1  0  0  0  0
 16  5  1  0  0  0  0
 17 16  1  0  0  0  0
 18 16  1  0  0  0  0
 19 21  1  0  0  0  0
 19  6  1  0  0  0  0
 19 16  1  0  0  0  0
 20 19  1  0  0  0  0
 22  6  1  0  0  0  0
 22 25  1  0  0  0  0
 23 22  1  0  0  0  0
 24 22  1  0  0  0  0
 25  4  1  0  0  0  0
 26 25  1  0  0  0  0
 27 25  1  0  0  0  0
 28 31  1  0  0  0  0
 28 29  1  0  0  0  0
 30 28  1  0  0  0  0
 32 33  1  0  0  0  0
 32 35  1  0  0  0  0
 34 32  1  0  0  0  0
 36 38  1  0  0  0  0
 36 39  1  0  0  0  0
 37 36  1  0  0  0  0
 40 49  1  0  0  0  0
 40 41  2  0  0  0  0
 41 43  1  0  0  0  0
 42 41  1  0  0  0  0
 43 45  2  0  0  0  0
 43 44  1  0  0  0  0
 45 46  1  0  0  0  0
 47 48  1  0  0  0  0
 47 45  1  0  0  0  0
 49 47  2  0  0  0  0
 50 49  1  0  0  0  0
 51 52  1  0  0  0  0
 51  7  1  0  0  0  0
 52 53  1  0  0  0  0
 54 55  1  0  0  0  0
 54 52  2  0  0  0  0
 56 54  1  0  0  0  0
 57 56  1  0  0  0  0
 58 56  2  0  0  0  0
 58 60  1  0  0  0  0
 59 58  1  0  0  0  0
 60 51  2  0  0  0  0
 61 60  1  0  0  0  0
 62  8  1  0  0  0  0
 63 64  1  0  0  0  0
 63 62  1  0  0  0  0
 65 63  2  0  0  0  0
 66 65  1  0  0  0  0
 67 69  2  0  0  0  0
 67 65  1  0  0  0  0
 68 67  1  0  0  0  0
 69 71  1  0  0  0  0
 70 69  1  0  0  0  0
 71 72  1  0  0  0  0
 71 62  2  0  0  0  0
 73 74  2  0  0  0  0
 73 82  1  0  0  0  0
 74 76  1  0  0  0  0
 75 74  1  0  0  0  0
 76 77  1  0  0  0  0
 76 78  2  0  0  0  0
 78 79  1  0  0  0  0
 80 81  1  0  0  0  0
 80 78  1  0  0  0  0
 82 80  2  0  0  0  0
 83 82  1  0  0  0  0
 84 85  1  0  0  0  0
M  END
$$$$
