
 OpenBabel02052520063D

 92 98  0  0  0  0  0  0  0  0999 V2000
    0.0599   -0.9859   -0.7645 Fe  0  0  0  0  0  0  0  0  0  0  0  0
    1.5672    0.1860   -2.2088 Cl  0  0  0  0  0  0  0  0  0  0  0  0
    0.1201    3.6083   -2.0207 C   0  0  0  0  0  0  0  0  0  0  0  0
   -0.3793    2.6740   -1.7429 H   0  0  0  0  0  0  0  0  0  0  0  0
    0.9560    3.3458   -2.6797 H   0  0  0  0  0  0  0  0  0  0  0  0
   -0.5904    4.2124   -2.5974 H   0  0  0  0  0  0  0  0  0  0  0  0
    1.2501    5.7145   -1.2219 C   0  0  0  0  0  0  0  0  0  0  0  0
    0.5177    6.3521   -1.7308 H   0  0  0  0  0  0  0  0  0  0  0  0
    2.0821    5.5418   -1.9158 H   0  0  0  0  0  0  0  0  0  0  0  0
    1.6381    6.2739   -0.3604 H   0  0  0  0  0  0  0  0  0  0  0  0
   -0.5924    4.6825    0.1371 C   0  0  0  0  0  0  0  0  0  0  0  0
   -1.0405    3.7582    0.5084 H   0  0  0  0  0  0  0  0  0  0  0  0
   -1.3666    5.2399   -0.4041 H   0  0  0  0  0  0  0  0  0  0  0  0
   -0.2907    5.2840    1.0045 H   0  0  0  0  0  0  0  0  0  0  0  0
    0.6029    4.3881   -0.7843 C   0  0  0  0  0  0  0  0  0  0  0  0
    1.6880    3.5680   -0.0320 C   0  0  0  0  0  0  0  0  0  0  0  0
    2.5892    3.5362   -0.6554 H   0  0  0  0  0  0  0  0  0  0  0  0
    1.9735    4.0827    0.8926 H   0  0  0  0  0  0  0  0  0  0  0  0
    0.6635    1.7028    1.3272 C   0  0  0  0  0  0  0  0  0  0  0  0
    0.4042    2.4828    2.4810 C   0  0  0  0  0  0  0  0  0  0  0  0
    0.7491    3.5071    2.5322 H   0  0  0  0  0  0  0  0  0  0  0  0
   -0.3318    1.9320    3.5112 C   0  0  0  0  0  0  0  0  0  0  0  0
   -0.5618    2.5270    4.3909 H   0  0  0  0  0  0  0  0  0  0  0  0
   -0.7998    0.6208    3.4040 C   0  0  0  0  0  0  0  0  0  0  0  0
   -1.4223    0.1763    4.1722 H   0  0  0  0  0  0  0  0  0  0  0  0
   -0.4786   -0.0962    2.2569 C   0  0  0  0  0  0  0  0  0  0  0  0
   -0.9154   -1.5448    2.1835 C   0  0  0  0  0  0  0  0  0  0  0  0
   -0.1744   -2.1304    2.7383 H   0  0  0  0  0  0  0  0  0  0  0  0
   -1.8690   -1.6571    2.7123 H   0  0  0  0  0  0  0  0  0  0  0  0
   -0.4088   -3.4697    0.7868 C   0  0  0  0  0  0  0  0  0  0  0  0
   -0.5607   -3.8543   -0.2242 H   0  0  0  0  0  0  0  0  0  0  0  0
   -0.8772   -4.1478    1.5152 H   0  0  0  0  0  0  0  0  0  0  0  0
    1.0757   -3.3534    1.0444 C   0  0  0  0  0  0  0  0  0  0  0  0
    1.7300   -4.2487    1.8798 C   0  0  0  0  0  0  0  0  0  0  0  0
    1.1818   -5.0514    2.3608 H   0  0  0  0  0  0  0  0  0  0  0  0
    3.1025   -4.0640    2.0913 C   0  0  0  0  0  0  0  0  0  0  0  0
    3.6517   -4.7344    2.7472 H   0  0  0  0  0  0  0  0  0  0  0  0
    3.7582   -3.0184    1.4743 C   0  0  0  0  0  0  0  0  0  0  0  0
    4.8156   -2.8578    1.6393 H   0  0  0  0  0  0  0  0  0  0  0  0
    3.0262   -2.1489    0.6177 C   0  0  0  0  0  0  0  0  0  0  0  0
    5.0579   -0.8620    0.0561 C   0  0  0  0  0  0  0  0  0  0  0  0
    5.6169   -1.7819   -0.1762 H   0  0  0  0  0  0  0  0  0  0  0  0
    5.3116   -0.5866    1.0914 H   0  0  0  0  0  0  0  0  0  0  0  0
    5.5534    0.2529   -0.8893 C   0  0  0  0  0  0  0  0  0  0  0  0
    7.0596    0.4339   -0.6183 C   0  0  0  0  0  0  0  0  0  0  0  0
    7.4738    1.2073   -1.2749 H   0  0  0  0  0  0  0  0  0  0  0  0
    7.6142   -0.4943   -0.8050 H   0  0  0  0  0  0  0  0  0  0  0  0
    7.2465    0.7395    0.4188 H   0  0  0  0  0  0  0  0  0  0  0  0
    4.8241    1.5768   -0.5979 C   0  0  0  0  0  0  0  0  0  0  0  0
    3.7561    1.5045   -0.8134 H   0  0  0  0  0  0  0  0  0  0  0  0
    5.2360    2.3803   -1.2202 H   0  0  0  0  0  0  0  0  0  0  0  0
    4.9373    1.8685    0.4535 H   0  0  0  0  0  0  0  0  0  0  0  0
    5.3499   -0.1565   -2.3608 C   0  0  0  0  0  0  0  0  0  0  0  0
    4.2929   -0.2866   -2.6095 H   0  0  0  0  0  0  0  0  0  0  0  0
    5.8732   -1.0958   -2.5798 H   0  0  0  0  0  0  0  0  0  0  0  0
    5.7530    0.6153   -3.0270 H   0  0  0  0  0  0  0  0  0  0  0  0
   -2.3763   -2.1089    0.2326 C   0  0  0  0  0  0  0  0  0  0  0  0
   -3.1216   -2.5189    0.9264 H   0  0  0  0  0  0  0  0  0  0  0  0
   -2.3247   -2.7628   -0.6372 H   0  0  0  0  0  0  0  0  0  0  0  0
   -2.7545   -0.6903   -0.3021 C   0  0  0  0  0  0  0  0  0  0  0  0
   -3.2512    0.2639    0.7969 C   0  0  0  0  0  0  0  0  0  0  0  0
   -2.9264    1.6226    0.7017 C   0  0  0  0  0  0  0  0  0  0  0  0
   -2.3074    1.9439   -0.1277 H   0  0  0  0  0  0  0  0  0  0  0  0
   -3.3707    2.5330    1.6590 C   0  0  0  0  0  0  0  0  0  0  0  0
   -3.1028    3.5820    1.5684 H   0  0  0  0  0  0  0  0  0  0  0  0
   -4.1496    2.1019    2.7354 C   0  0  0  0  0  0  0  0  0  0  0  0
   -4.4897    2.8105    3.4860 H   0  0  0  0  0  0  0  0  0  0  0  0
   -4.4949    0.7538    2.8329 C   0  0  0  0  0  0  0  0  0  0  0  0
   -5.1118    0.4049    3.6574 H   0  0  0  0  0  0  0  0  0  0  0  0
   -4.0549   -0.1545    1.8664 C   0  0  0  0  0  0  0  0  0  0  0  0
   -4.3566   -1.1945    1.9509 H   0  0  0  0  0  0  0  0  0  0  0  0
   -3.8209   -0.8925   -1.4020 C   0  0  0  0  0  0  0  0  0  0  0  0
   -5.1836   -0.6418   -1.2181 C   0  0  0  0  0  0  0  0  0  0  0  0
   -5.5442   -0.2528   -0.2717 H   0  0  0  0  0  0  0  0  0  0  0  0
   -6.0934   -0.8728   -2.2552 C   0  0  0  0  0  0  0  0  0  0  0  0
   -7.1495   -0.6679   -2.0972 H   0  0  0  0  0  0  0  0  0  0  0  0
   -5.6492   -1.3543   -3.4858 C   0  0  0  0  0  0  0  0  0  0  0  0
   -6.3563   -1.5301   -4.2926 H   0  0  0  0  0  0  0  0  0  0  0  0
   -4.2865   -1.6064   -3.6751 C   0  0  0  0  0  0  0  0  0  0  0  0
   -3.9292   -1.9794   -4.6319 H   0  0  0  0  0  0  0  0  0  0  0  0
   -3.3777   -1.3772   -2.6442 C   0  0  0  0  0  0  0  0  0  0  0  0
   -2.3183   -1.5750   -2.7836 H   0  0  0  0  0  0  0  0  0  0  0  0
    1.3466    2.1861    0.2569 N   0  0  0  0  0  0  0  0  0  0  0  0
    1.3952    1.5578   -0.5407 H   0  0  0  0  0  0  0  0  0  0  0  0
    0.2511    0.4076    1.2454 N   0  0  0  0  0  0  0  0  0  0  0  0
   -1.0190   -2.1241    0.8277 N   0  0  2  0  0  0  0  0  0  0  0  0
    1.6915   -2.3224    0.4280 N   0  0  0  0  0  0  0  0  0  0  0  0
    3.6290   -1.1257   -0.0313 N   0  0  0  0  0  0  0  0  0  0  0  0
    3.0602   -0.6163   -0.7033 H   0  0  0  0  0  0  0  0  0  0  0  0
   -1.5992   -0.1606   -0.8996 O   0  0  0  0  0  0  0  0  0  0  0  0
   -0.1893   -2.4398   -1.9219 O   0  0  0  0  0  0  0  0  0  0  0  0
    0.6391   -2.6850   -2.3647 H   0  0  0  0  0  0  0  0  0  0  0  0
  2  1  1  0  0  0  0
  3  4  1  0  0  0  0
  3 15  1  0  0  0  0
  5  3  1  0  0  0  0
  6  3  1  0  0  0  0
  7 15  1  0  0  0  0
  7 10  1  0  0  0  0
  8  7  1  0  0  0  0
  9  7  1  0  0  0  0
 11 12  1  0  0  0  0
 11 14  1  0  0  0  0
 13 11  1  0  0  0  0
 15 16  1  0  0  0  0
 15 11  1  0  0  0  0
 16 83  1  0  0  0  0
 16 18  1  0  0  0  0
 17 16  1  0  0  0  0
 19 20  1  0  0  0  0
 20 21  1  0  0  0  0
 20 22  2  0  0  0  0
 22 23  1  0  0  0  0
 24 22  1  0  0  0  0
 24 25  1  0  0  0  0
 26 24  2  0  0  0  0
 27 26  1  0  0  0  0
 27 29  1  0  0  0  0
 27 28  1  0  0  0  0
 30 86  1  0  0  0  0
 30 33  1  0  0  0  0
 30 32  1  0  0  0  0
 31 30  1  0  0  0  0
 33 34  2  0  0  0  0
 34 36  1  0  0  0  0
 34 35  1  0  0  0  0
 36 37  1  0  0  0  0
 38 39  1  0  0  0  0
 38 36  2  0  0  0  0
 40 38  1  0  0  0  0
 41 43  1  0  0  0  0
 42 41  1  0  0  0  0
 44 45  1  0  0  0  0
 44 49  1  0  0  0  0
 44 41  1  0  0  0  0
 45 48  1  0  0  0  0
 46 45  1  0  0  0  0
 47 45  1  0  0  0  0
 49 52  1  0  0  0  0
 50 49  1  0  0  0  0
 51 49  1  0  0  0  0
 53 44  1  0  0  0  0
 54 53  1  0  0  0  0
 55 53  1  0  0  0  0
 56 53  1  0  0  0  0
 57 58  1  0  0  0  0
 59 57  1  0  0  0  0
 60 57  1  0  0  0  0
 60 61  1  0  0  0  0
 61 70  1  0  0  0  0
 62 61  2  0  0  0  0
 62 64  1  0  0  0  0
 63 62  1  0  0  0  0
 64 66  2  0  0  0  0
 65 64  1  0  0  0  0
 66 68  1  0  0  0  0
 66 67  1  0  0  0  0
 68 69  1  0  0  0  0
 70 71  1  0  0  0  0
 70 68  2  0  0  0  0
 72 73  1  0  0  0  0
 72 60  1  0  0  0  0
 73 74  1  0  0  0  0
 75 76  1  0  0  0  0
 75 73  2  0  0  0  0
 77 75  1  0  0  0  0
 78 77  1  0  0  0  0
 79 77  2  0  0  0  0
 79 81  1  0  0  0  0
 80 79  1  0  0  0  0
 81 72  2  0  0  0  0
 82 81  1  0  0  0  0
 83 19  1  0  0  0  0
 84 83  1  0  0  0  0
 85 19  2  0  0  0  0
 85 26  1  0  0  0  0
 85  1  9  0  0  0  0
 86 57  1  6  0  0  0
 86 27  1  0  0  0  0
 86  1  9  0  0  0  0
 87 40  2  0  0  0  0
 87 33  1  0  0  0  0
 87  1  9  0  0  0  0
 88 41  1  0  0  0  0
 88 40  1  0  0  0  0
 89 88  1  0  0  0  0
 90  1  1  0  0  0  0
 90 60  1  0  0  0  0
 91  1  1  0  0  0  0
 92 91  1  0  0  0  0
M  END
$$$$
