
 OpenBabel02052520063D

 91 97  0  0  0  0  0  0  0  0999 V2000
   -0.2186   -1.0705   -0.5699 Fe  0  0  0  0  0  0  0  0  0  0  0  0
   -0.6536   -3.1244   -1.6154 Cl  0  0  0  0  0  0  0  0  0  0  0  0
    1.0720   -0.1761   -2.3262 Cl  0  0  0  0  0  0  0  0  0  0  0  0
    0.4289    4.3800   -1.6842 C   0  0  0  0  0  0  0  0  0  0  0  0
   -0.2809    3.6149   -1.3516 H   0  0  0  0  0  0  0  0  0  0  0  0
    0.8053    4.0819   -2.6707 H   0  0  0  0  0  0  0  0  0  0  0  0
   -0.1231    5.3195   -1.8039 H   0  0  0  0  0  0  0  0  0  0  0  0
    2.5420    5.6479   -1.1663 C   0  0  0  0  0  0  0  0  0  0  0  0
    2.0234    6.6101   -1.2492 H   0  0  0  0  0  0  0  0  0  0  0  0
    2.9540    5.4041   -2.1534 H   0  0  0  0  0  0  0  0  0  0  0  0
    3.3823    5.7801   -0.4725 H   0  0  0  0  0  0  0  0  0  0  0  0
    1.0081    4.9410    0.6980 C   0  0  0  0  0  0  0  0  0  0  0  0
    0.3503    4.1598    1.0923 H   0  0  0  0  0  0  0  0  0  0  0  0
    0.4248    5.8667    0.6223 H   0  0  0  0  0  0  0  0  0  0  0  0
    1.8071    5.1096    1.4307 H   0  0  0  0  0  0  0  0  0  0  0  0
    1.5792    4.5520   -0.6763 C   0  0  0  0  0  0  0  0  0  0  0  0
    2.3851    3.2291   -0.5788 C   0  0  0  0  0  0  0  0  0  0  0  0
    2.8285    3.0166   -1.5580 H   0  0  0  0  0  0  0  0  0  0  0  0
    3.2233    3.3516    0.1165 H   0  0  0  0  0  0  0  0  0  0  0  0
    1.3780    1.5648    1.0249 C   0  0  0  0  0  0  0  0  0  0  0  0
    2.0422    2.0539    2.1808 C   0  0  0  0  0  0  0  0  0  0  0  0
    2.7971    2.8237    2.0892 H   0  0  0  0  0  0  0  0  0  0  0  0
    1.7021    1.5417    3.4153 C   0  0  0  0  0  0  0  0  0  0  0  0
    2.2108    1.8979    4.3071 H   0  0  0  0  0  0  0  0  0  0  0  0
    0.6840    0.5841    3.5168 C   0  0  0  0  0  0  0  0  0  0  0  0
    0.3531    0.2065    4.4780 H   0  0  0  0  0  0  0  0  0  0  0  0
    0.0830    0.1504    2.3437 C   0  0  0  0  0  0  0  0  0  0  0  0
   -1.1637   -0.6999    2.4230 C   0  0  0  0  0  0  0  0  0  0  0  0
   -1.1794   -1.2525    3.3712 H   0  0  0  0  0  0  0  0  0  0  0  0
   -2.0040   -0.0029    2.4463 H   0  0  0  0  0  0  0  0  0  0  0  0
   -0.8824   -2.9814    1.6425 C   0  0  0  0  0  0  0  0  0  0  0  0
   -1.1662   -3.6614    0.8359 H   0  0  0  0  0  0  0  0  0  0  0  0
   -1.3291   -3.3366    2.5825 H   0  0  0  0  0  0  0  0  0  0  0  0
    0.6240   -2.9590    1.7442 C   0  0  0  0  0  0  0  0  0  0  0  0
    1.2850   -3.6534    2.7453 C   0  0  0  0  0  0  0  0  0  0  0  0
    0.7246   -4.2075    3.4902 H   0  0  0  0  0  0  0  0  0  0  0  0
    2.6848   -3.6071    2.7600 C   0  0  0  0  0  0  0  0  0  0  0  0
    3.2431   -4.1314    3.5308 H   0  0  0  0  0  0  0  0  0  0  0  0
    3.3584   -2.8873    1.7951 C   0  0  0  0  0  0  0  0  0  0  0  0
    4.4393   -2.8383    1.8000 H   0  0  0  0  0  0  0  0  0  0  0  0
    2.6170   -2.2018    0.7936 C   0  0  0  0  0  0  0  0  0  0  0  0
    4.6824   -1.4743   -0.3422 C   0  0  0  0  0  0  0  0  0  0  0  0
    5.0572   -2.5087   -0.3877 H   0  0  0  0  0  0  0  0  0  0  0  0
    5.1405   -1.0047    0.5415 H   0  0  0  0  0  0  0  0  0  0  0  0
    5.1620   -0.7262   -1.6034 C   0  0  0  0  0  0  0  0  0  0  0  0
    6.7021   -0.7758   -1.5957 C   0  0  0  0  0  0  0  0  0  0  0  0
    7.1032   -0.2627   -2.4770 H   0  0  0  0  0  0  0  0  0  0  0  0
    7.0694   -1.8094   -1.6156 H   0  0  0  0  0  0  0  0  0  0  0  0
    7.1149   -0.2847   -0.7053 H   0  0  0  0  0  0  0  0  0  0  0  0
    4.7008    0.7416   -1.5655 C   0  0  0  0  0  0  0  0  0  0  0  0
    3.6122    0.8204   -1.5970 H   0  0  0  0  0  0  0  0  0  0  0  0
    5.1009    1.2878   -2.4281 H   0  0  0  0  0  0  0  0  0  0  0  0
    5.0532    1.2420   -0.6544 H   0  0  0  0  0  0  0  0  0  0  0  0
    4.6397   -1.4193   -2.8769 C   0  0  0  0  0  0  0  0  0  0  0  0
    3.5483   -1.3952   -2.9459 H   0  0  0  0  0  0  0  0  0  0  0  0
    4.9613   -2.4676   -2.9101 H   0  0  0  0  0  0  0  0  0  0  0  0
    5.0354   -0.9178   -3.7679 H   0  0  0  0  0  0  0  0  0  0  0  0
   -2.7586   -1.6249    0.7707 C   0  0  0  0  0  0  0  0  0  0  0  0
   -3.4876   -1.6803    1.5897 H   0  0  0  0  0  0  0  0  0  0  0  0
   -2.8615   -2.5070    0.1380 H   0  0  0  0  0  0  0  0  0  0  0  0
   -2.9803   -0.3787   -0.1495 C   0  0  0  0  0  0  0  0  0  0  0  0
   -3.2607    0.9158    0.6466 C   0  0  0  0  0  0  0  0  0  0  0  0
   -2.4223    2.0249    0.4871 C   0  0  0  0  0  0  0  0  0  0  0  0
   -1.5838    1.9453   -0.1932 H   0  0  0  0  0  0  0  0  0  0  0  0
   -2.6532    3.1996    1.2060 C   0  0  0  0  0  0  0  0  0  0  0  0
   -1.9942    4.0520    1.0646 H   0  0  0  0  0  0  0  0  0  0  0  0
   -3.7231    3.2817    2.0983 C   0  0  0  0  0  0  0  0  0  0  0  0
   -3.9007    4.1946    2.6607 H   0  0  0  0  0  0  0  0  0  0  0  0
   -4.5709    2.1821    2.2565 C   0  0  0  0  0  0  0  0  0  0  0  0
   -5.4144    2.2368    2.9400 H   0  0  0  0  0  0  0  0  0  0  0  0
   -4.3449    1.0122    1.5307 C   0  0  0  0  0  0  0  0  0  0  0  0
   -5.0262    0.1742    1.6477 H   0  0  0  0  0  0  0  0  0  0  0  0
   -4.1576   -0.6389   -1.1054 C   0  0  0  0  0  0  0  0  0  0  0  0
   -5.3079   -1.3324   -0.7084 C   0  0  0  0  0  0  0  0  0  0  0  0
   -5.3883   -1.7434    0.2942 H   0  0  0  0  0  0  0  0  0  0  0  0
   -6.3689   -1.5187   -1.5976 C   0  0  0  0  0  0  0  0  0  0  0  0
   -7.2518   -2.0641   -1.2739 H   0  0  0  0  0  0  0  0  0  0  0  0
   -6.2923   -1.0134   -2.8957 C   0  0  0  0  0  0  0  0  0  0  0  0
   -7.1160   -1.1603   -3.5893 H   0  0  0  0  0  0  0  0  0  0  0  0
   -5.1451   -0.3258   -3.2988 C   0  0  0  0  0  0  0  0  0  0  0  0
   -5.0703    0.0623   -4.3113 H   0  0  0  0  0  0  0  0  0  0  0  0
   -4.0857   -0.1403   -2.4113 C   0  0  0  0  0  0  0  0  0  0  0  0
   -3.1839    0.3740   -2.7238 H   0  0  0  0  0  0  0  0  0  0  0  0
    1.5956    2.0686   -0.2131 N   0  0  0  0  0  0  0  0  0  0  0  0
    1.1643    1.5516   -0.9746 H   0  0  0  0  0  0  0  0  0  0  0  0
    0.4571    0.5682    1.1185 N   0  0  0  0  0  0  0  0  0  0  0  0
   -1.3733   -1.6346    1.2936 N   0  0  2  0  0  0  0  0  0  0  0  0
    1.2591   -2.2384    0.7948 N   0  0  0  0  0  0  0  0  0  0  0  0
    3.2351   -1.4869   -0.1760 N   0  0  0  0  0  0  0  0  0  0  0  0
    2.6494   -1.1161   -0.9194 H   0  0  0  0  0  0  0  0  0  0  0  0
   -1.8107   -0.2117   -0.8965 O   0  0  0  0  0  0  0  0  0  0  0  0
  2  1  1  0  0  0  0
  3  1  1  0  0  0  0
  4  5  1  0  0  0  0
  4 16  1  0  0  0  0
  6  4  1  0  0  0  0
  7  4  1  0  0  0  0
  8 16  1  0  0  0  0
  8 11  1  0  0  0  0
  9  8  1  0  0  0  0
 10  8  1  0  0  0  0
 12 13  1  0  0  0  0
 12 15  1  0  0  0  0
 14 12  1  0  0  0  0
 16 17  1  0  0  0  0
 16 12  1  0  0  0  0
 17 84  1  0  0  0  0
 17 19  1  0  0  0  0
 18 17  1  0  0  0  0
 20 86  2  0  0  0  0
 20 21  1  0  0  0  0
 21 23  2  0  0  0  0
 22 21  1  0  0  0  0
 23 25  1  0  0  0  0
 23 24  1  0  0  0  0
 25 26  1  0  0  0  0
 27 28  1  0  0  0  0
 27 25  2  0  0  0  0
 28 30  1  0  0  0  0
 28 29  1  0  0  0  0
 31 34  1  0  0  0  0
 31 33  1  0  0  0  0
 32 31  1  0  0  0  0
 34 35  2  0  0  0  0
 35 37  1  0  0  0  0
 35 36  1  0  0  0  0
 37 38  1  0  0  0  0
 39 40  1  0  0  0  0
 39 37  2  0  0  0  0
 41 88  2  0  0  0  0
 41 39  1  0  0  0  0
 42 89  1  0  0  0  0
 42 44  1  0  0  0  0
 43 42  1  0  0  0  0
 45 46  1  0  0  0  0
 45 50  1  0  0  0  0
 45 42  1  0  0  0  0
 46 49  1  0  0  0  0
 47 46  1  0  0  0  0
 48 46  1  0  0  0  0
 50 53  1  0  0  0  0
 51 50  1  0  0  0  0
 52 50  1  0  0  0  0
 54 45  1  0  0  0  0
 55 54  1  0  0  0  0
 56 54  1  0  0  0  0
 57 54  1  0  0  0  0
 58 59  1  0  0  0  0
 60 58  1  0  0  0  0
 61 62  1  0  0  0  0
 61 58  1  0  0  0  0
 62 71  1  0  0  0  0
 63 62  2  0  0  0  0
 63 65  1  0  0  0  0
 64 63  1  0  0  0  0
 65 67  2  0  0  0  0
 66 65  1  0  0  0  0
 67 69  1  0  0  0  0
 67 68  1  0  0  0  0
 69 70  1  0  0  0  0
 71 72  1  0  0  0  0
 71 69  2  0  0  0  0
 73 74  1  0  0  0  0
 73 61  1  0  0  0  0
 74 75  1  0  0  0  0
 76 77  1  0  0  0  0
 76 74  2  0  0  0  0
 78 76  1  0  0  0  0
 79 78  1  0  0  0  0
 80 78  2  0  0  0  0
 80 82  1  0  0  0  0
 81 80  1  0  0  0  0
 82 73  2  0  0  0  0
 83 82  1  0  0  0  0
 84 20  1  0  0  0  0
 85 84  1  0  0  0  0
 86 27  1  0  0  0  0
 86  1  9  0  0  0  0
 87 58  1  6  0  0  0
 87 31  1  0  0  0  0
 87 28  1  0  0  0  0
 87  1  9  0  0  0  0
 88 34  1  0  0  0  0
 88  1  9  0  0  0  0
 89 41  1  0  0  0  0
 90 89  1  0  0  0  0
 91  1  1  0  0  0  0
 91 61  1  0  0  0  0
M  END
$$$$
