
 OpenBabel02052520063D

 94100  0  0  0  0  0  0  0  0999 V2000
    0.1834   -0.7249   -0.2304 Fe  0  0  0  0  0  0  0  0  0  0  0  0
    1.1272    3.2638   -2.8382 C   0  0  0  0  0  0  0  0  0  0  0  0
    0.5543    2.3932   -2.5013 H   0  0  0  0  0  0  0  0  0  0  0  0
    2.1038    2.9071   -3.1908 H   0  0  0  0  0  0  0  0  0  0  0  0
    0.6016    3.7056   -3.6928 H   0  0  0  0  0  0  0  0  0  0  0  0
    2.0859    5.5121   -2.2328 C   0  0  0  0  0  0  0  0  0  0  0  0
    1.5536    5.9975   -3.0591 H   0  0  0  0  0  0  0  0  0  0  0  0
    3.0745    5.2118   -2.6026 H   0  0  0  0  0  0  0  0  0  0  0  0
    2.2336    6.2617   -1.4446 H   0  0  0  0  0  0  0  0  0  0  0  0
   -0.0914    4.7581   -1.2227 C   0  0  0  0  0  0  0  0  0  0  0  0
   -0.6519    3.9225   -0.7952 H   0  0  0  0  0  0  0  0  0  0  0  0
   -0.6781    5.1701   -2.0525 H   0  0  0  0  0  0  0  0  0  0  0  0
   -0.0056    5.5362   -0.4536 H   0  0  0  0  0  0  0  0  0  0  0  0
    1.2928    4.3009   -1.7116 C   0  0  0  0  0  0  0  0  0  0  0  0
    2.0997    3.6747   -0.5421 C   0  0  0  0  0  0  0  0  0  0  0  0
    3.1090    3.4419   -0.9042 H   0  0  0  0  0  0  0  0  0  0  0  0
    2.2251    4.4101    0.2594 H   0  0  0  0  0  0  0  0  0  0  0  0
    0.7212    2.3079    1.0560 C   0  0  0  0  0  0  0  0  0  0  0  0
    0.3807    3.3884    1.9105 C   0  0  0  0  0  0  0  0  0  0  0  0
    0.7634    4.3800    1.7090 H   0  0  0  0  0  0  0  0  0  0  0  0
   -0.4722    3.1685    2.9718 C   0  0  0  0  0  0  0  0  0  0  0  0
   -0.7561    3.9950    3.6176 H   0  0  0  0  0  0  0  0  0  0  0  0
   -0.9873    1.8891    3.1975 C   0  0  0  0  0  0  0  0  0  0  0  0
   -1.6892    1.6926    3.9994 H   0  0  0  0  0  0  0  0  0  0  0  0
   -0.6076    0.8736    2.3309 C   0  0  0  0  0  0  0  0  0  0  0  0
   -1.0820   -0.5331    2.6225 C   0  0  0  0  0  0  0  0  0  0  0  0
   -0.3865   -0.9530    3.3577 H   0  0  0  0  0  0  0  0  0  0  0  0
   -2.0676   -0.4930    3.1011 H   0  0  0  0  0  0  0  0  0  0  0  0
   -0.5686   -2.7727    1.8667 C   0  0  0  0  0  0  0  0  0  0  0  0
   -0.7590   -3.4852    1.0608 H   0  0  0  0  0  0  0  0  0  0  0  0
   -1.0613   -3.1563    2.7720 H   0  0  0  0  0  0  0  0  0  0  0  0
    0.9256   -2.6613    2.0790 C   0  0  0  0  0  0  0  0  0  0  0  0
    1.5729   -3.3881    3.0669 C   0  0  0  0  0  0  0  0  0  0  0  0
    1.0108   -4.0314    3.7349 H   0  0  0  0  0  0  0  0  0  0  0  0
    2.9656   -3.2567    3.1668 C   0  0  0  0  0  0  0  0  0  0  0  0
    3.5108   -3.7949    3.9377 H   0  0  0  0  0  0  0  0  0  0  0  0
    3.6489   -2.4398    2.2889 C   0  0  0  0  0  0  0  0  0  0  0  0
    4.7228   -2.3232    2.3624 H   0  0  0  0  0  0  0  0  0  0  0  0
    2.9237   -1.7414    1.2839 C   0  0  0  0  0  0  0  0  0  0  0  0
    4.9717   -0.8918    0.1907 C   0  0  0  0  0  0  0  0  0  0  0  0
    5.4043   -1.9010    0.2618 H   0  0  0  0  0  0  0  0  0  0  0  0
    5.4142   -0.2959    1.0048 H   0  0  0  0  0  0  0  0  0  0  0  0
    5.3941   -0.2833   -1.1656 C   0  0  0  0  0  0  0  0  0  0  0  0
    6.9338   -0.2741   -1.2007 C   0  0  0  0  0  0  0  0  0  0  0  0
    7.2924    0.1424   -2.1489 H   0  0  0  0  0  0  0  0  0  0  0  0
    7.3421   -1.2879   -1.1056 H   0  0  0  0  0  0  0  0  0  0  0  0
    7.3479    0.3368   -0.3889 H   0  0  0  0  0  0  0  0  0  0  0  0
    4.8738    1.1603   -1.3047 C   0  0  0  0  0  0  0  0  0  0  0  0
    3.7828    1.1860   -1.3596 H   0  0  0  0  0  0  0  0  0  0  0  0
    5.2655    1.6167   -2.2219 H   0  0  0  0  0  0  0  0  0  0  0  0
    5.1915    1.7792   -0.4563 H   0  0  0  0  0  0  0  0  0  0  0  0
    4.8602   -1.1464   -2.3254 C   0  0  0  0  0  0  0  0  0  0  0  0
    3.7661   -1.1762   -2.3360 H   0  0  0  0  0  0  0  0  0  0  0  0
    5.2243   -2.1781   -2.2487 H   0  0  0  0  0  0  0  0  0  0  0  0
    5.1951   -0.7410   -3.2875 H   0  0  0  0  0  0  0  0  0  0  0  0
   -2.4241   -1.5686    0.7816 C   0  0  0  0  0  0  0  0  0  0  0  0
   -3.2415   -1.7276    1.4968 H   0  0  0  0  0  0  0  0  0  0  0  0
   -2.3622   -2.4521    0.1459 H   0  0  0  0  0  0  0  0  0  0  0  0
   -2.6804   -0.3575   -0.1707 C   0  0  0  0  0  0  0  0  0  0  0  0
   -3.1696    0.9064    0.5570 C   0  0  0  0  0  0  0  0  0  0  0  0
   -2.7447    2.1545    0.0855 C   0  0  0  0  0  0  0  0  0  0  0  0
   -2.0575    2.1774   -0.7519 H   0  0  0  0  0  0  0  0  0  0  0  0
   -3.1755    3.3331    0.6912 C   0  0  0  0  0  0  0  0  0  0  0  0
   -2.8228    4.2896    0.3149 H   0  0  0  0  0  0  0  0  0  0  0  0
   -4.0463    3.2870    1.7825 C   0  0  0  0  0  0  0  0  0  0  0  0
   -4.3791    4.2054    2.2590 H   0  0  0  0  0  0  0  0  0  0  0  0
   -4.4904    2.0505    2.2518 C   0  0  0  0  0  0  0  0  0  0  0  0
   -5.1765    1.9992    3.0936 H   0  0  0  0  0  0  0  0  0  0  0  0
   -4.0578    0.8708    1.6406 C   0  0  0  0  0  0  0  0  0  0  0  0
   -4.4301   -0.0787    2.0141 H   0  0  0  0  0  0  0  0  0  0  0  0
   -3.7060   -0.8282   -1.2268 C   0  0  0  0  0  0  0  0  0  0  0  0
   -5.0764   -0.5612   -1.1437 C   0  0  0  0  0  0  0  0  0  0  0  0
   -5.4661    0.0523   -0.3385 H   0  0  0  0  0  0  0  0  0  0  0  0
   -5.9571   -1.0661   -2.1050 C   0  0  0  0  0  0  0  0  0  0  0  0
   -7.0187   -0.8453   -2.0267 H   0  0  0  0  0  0  0  0  0  0  0  0
   -5.4787   -1.8425   -3.1601 C   0  0  0  0  0  0  0  0  0  0  0  0
   -6.1647   -2.2350   -3.9063 H   0  0  0  0  0  0  0  0  0  0  0  0
   -4.1100   -2.1106   -3.2508 C   0  0  0  0  0  0  0  0  0  0  0  0
   -3.7234   -2.7168   -4.0657 H   0  0  0  0  0  0  0  0  0  0  0  0
   -3.2313   -1.6064   -2.2940 C   0  0  0  0  0  0  0  0  0  0  0  0
   -2.1687   -1.8104   -2.3627 H   0  0  0  0  0  0  0  0  0  0  0  0
    1.5470    2.4445   -0.0087 N   0  0  0  0  0  0  0  0  0  0  0  0
    1.6210    1.6164   -0.6118 H   0  0  0  0  0  0  0  0  0  0  0  0
    0.2289    1.0551    1.2913 N   0  0  0  0  0  0  0  0  0  0  0  0
   -1.1155   -1.4592    1.4687 N   0  0  2  0  0  0  0  0  0  0  0  0
    1.5670   -1.8355    1.2288 N   0  0  0  0  0  0  0  0  0  0  0  0
    3.5301   -0.9712    0.3556 N   0  0  0  0  0  0  0  0  0  0  0  0
    2.9171   -0.5693   -0.3639 H   0  0  0  0  0  0  0  0  0  0  0  0
   -1.4629   -0.0814   -0.8152 O   0  0  0  0  0  0  0  0  0  0  0  0
    1.5587    0.0698   -1.3213 O   0  0  0  0  0  0  0  0  0  0  0  0
    1.4638   -0.2026   -2.2473 H   0  0  0  0  0  0  0  0  0  0  0  0
    0.1193   -2.4887   -1.2400 N   0  0  0  0  0  0  0  0  0  0  0  0
   -0.2502   -3.6091   -1.4034 C   0  0  0  0  0  0  0  0  0  0  0  0
   -0.7825   -5.1255   -1.5819 S   0  0  0  0  0  0  0  0  0  0  0  0
  2  3  1  0  0  0  0
  2 14  1  0  0  0  0
  4  2  1  0  0  0  0
  5  2  1  0  0  0  0
  6 14  1  0  0  0  0
  6  9  1  0  0  0  0
  7  6  1  0  0  0  0
  8  6  1  0  0  0  0
 10 11  1  0  0  0  0
 10 13  1  0  0  0  0
 12 10  1  0  0  0  0
 14 10  1  0  0  0  0
 14 15  1  0  0  0  0
 15 82  1  0  0  0  0
 15 17  1  0  0  0  0
 16 15  1  0  0  0  0
 18 84  2  0  0  0  0
 18 19  1  0  0  0  0
 19 21  2  0  0  0  0
 20 19  1  0  0  0  0
 21 23  1  0  0  0  0
 21 22  1  0  0  0  0
 23 24  1  0  0  0  0
 25 26  1  0  0  0  0
 25 23  2  0  0  0  0
 26 28  1  0  0  0  0
 26 27  1  0  0  0  0
 29 32  1  0  0  0  0
 29 31  1  0  0  0  0
 30 29  1  0  0  0  0
 32 33  2  0  0  0  0
 33 35  1  0  0  0  0
 33 34  1  0  0  0  0
 35 36  1  0  0  0  0
 37 38  1  0  0  0  0
 37 35  2  0  0  0  0
 39 37  1  0  0  0  0
 40 41  1  0  0  0  0
 40 87  1  0  0  0  0
 40 42  1  0  0  0  0
 43 40  1  0  0  0  0
 44 43  1  0  0  0  0
 44 46  1  0  0  0  0
 44 47  1  0  0  0  0
 45 44  1  0  0  0  0
 48 43  1  0  0  0  0
 48 51  1  0  0  0  0
 49 48  1  0  0  0  0
 50 48  1  0  0  0  0
 52 54  1  0  0  0  0
 52 43  1  0  0  0  0
 53 52  1  0  0  0  0
 55 52  1  0  0  0  0
 56 57  1  0  0  0  0
 58 56  1  0  0  0  0
 59 60  1  0  0  0  0
 59 56  1  0  0  0  0
 60 69  1  0  0  0  0
 61 60  2  0  0  0  0
 61 63  1  0  0  0  0
 62 61  1  0  0  0  0
 63 65  2  0  0  0  0
 64 63  1  0  0  0  0
 65 67  1  0  0  0  0
 65 66  1  0  0  0  0
 67 68  1  0  0  0  0
 69 70  1  0  0  0  0
 69 67  2  0  0  0  0
 71 72  1  0  0  0  0
 71 59  1  0  0  0  0
 72 73  1  0  0  0  0
 74 75  1  0  0  0  0
 74 72  2  0  0  0  0
 76 74  1  0  0  0  0
 77 76  1  0  0  0  0
 78 76  2  0  0  0  0
 78 80  1  0  0  0  0
 79 78  1  0  0  0  0
 80 71  2  0  0  0  0
 81 80  1  0  0  0  0
 82 18  1  0  0  0  0
 83 82  1  0  0  0  0
 84 25  1  0  0  0  0
 84  1  9  0  0  0  0
 85 56  1  6  0  0  0
 85 29  1  0  0  0  0
 85 26  1  0  0  0  0
 85  1  9  0  0  0  0
 86 39  2  0  0  0  0
 86 32  1  0  0  0  0
 86  1  9  0  0  0  0
 87 39  1  0  0  0  0
 88 87  1  0  0  0  0
 89  1  1  0  0  0  0
 89 59  1  0  0  0  0
 90  1  1  0  0  0  0
 91 90  1  0  0  0  0
 92  1  1  0  0  0  0
 93 92  2  0  0  0  0
 94 93  2  0  0  0  0
M  END
$$$$
