
 OpenBabel02052520063D

 46 50  0  0  0  0  0  0  0  0999 V2000
   -0.6944   -1.6025    3.1098 H   0  0  0  0  0  0  0  0  0  0  0  0
   -3.1470   -2.1936    1.2372 H   0  0  0  0  0  0  0  0  0  0  0  0
   -1.8770   -0.4001    2.6515 H   0  0  0  0  0  0  0  0  0  0  0  0
   -0.9413   -0.8650    2.3312 C   0  0  0  0  0  0  0  0  0  0  0  0
   -3.2861    0.2936    1.3462 H   0  0  0  0  0  0  0  0  0  0  0  0
    0.2343    0.7285    3.2337 H   0  0  0  0  0  0  0  0  0  0  0  0
   -2.5163   -1.5869    0.5604 C   0  0  0  0  0  0  0  0  0  0  0  0
   -1.7481    1.6755    2.1308 H   0  0  0  0  0  0  0  0  0  0  0  0
   -4.1772   -0.3438   -0.0153 H   0  0  0  0  0  0  0  0  0  0  0  0
   -0.4320   -2.7964    0.9290 C   0  0  0  0  0  0  0  0  0  0  0  0
   -3.1609   -0.2022    0.3785 C   0  0  0  0  0  0  0  0  0  0  0  0
   -1.1230   -1.5070    1.0234 N   0  0  2  0  0  0  0  0  0  0  0  0
    0.1758    0.1877    2.2721 C   0  0  0  0  0  0  0  0  0  0  0  0
   -2.4752   -2.0837   -0.4135 H   0  0  0  0  0  0  0  0  0  0  0  0
    1.1288   -0.3298    2.1331 H   0  0  0  0  0  0  0  0  0  0  0  0
   -1.1714    1.9899    1.2559 C   0  0  0  0  0  0  0  0  0  0  0  0
   -0.8576    3.0232    1.4629 H   0  0  0  0  0  0  0  0  0  0  0  0
   -2.9918    2.5696    0.2442 H   0  0  0  0  0  0  0  0  0  0  0  0
    0.0047    1.1006    1.1336 N   0  0  1  0  0  0  0  0  0  0  0  0
   -2.3721    0.6632   -0.5207 N   0  0  2  0  0  0  0  0  0  0  0  0
   -2.0708    2.0082    0.0032 C   0  0  0  0  0  0  0  0  0  0  0  0
    1.6249    2.4395    1.5848 H   0  0  0  0  0  0  0  0  0  0  0  0
   -2.9347    0.7216   -1.8801 C   0  0  0  0  0  0  0  0  0  0  0  0
    1.2421    1.8058    0.7664 C   0  0  0  0  0  0  0  0  0  0  0  0
   -1.5344    2.5178   -0.7991 H   0  0  0  0  0  0  0  0  0  0  0  0
   -0.2733   -0.1814   -0.8942 Fe  0  0  0  0  0  0  0  0  0  0  0  0
    0.9840    2.4177   -0.1068 H   0  0  0  0  0  0  0  0  0  0  0  0
    2.3126    0.8334    0.3070 C   0  0  0  0  0  0  0  0  0  0  0  0
    1.8808   -0.2068   -0.4331 N   0  0  0  0  0  0  0  0  0  0  0  0
    3.9894    1.8437    1.2028 H   0  0  0  0  0  0  0  0  0  0  0  0
    3.6673    1.0048    0.5927 C   0  0  0  0  0  0  0  0  0  0  0  0
    2.7622   -1.0942   -0.9126 C   0  0  0  0  0  0  0  0  0  0  0  0
    2.3251   -1.8988   -1.4984 H   0  0  0  0  0  0  0  0  0  0  0  0
    4.5903    0.0869    0.0872 C   0  0  0  0  0  0  0  0  0  0  0  0
    4.1320   -0.9855   -0.6805 C   0  0  0  0  0  0  0  0  0  0  0  0
    5.6501    0.2046    0.2954 H   0  0  0  0  0  0  0  0  0  0  0  0
    4.8164   -1.7226   -1.0885 H   0  0  0  0  0  0  0  0  0  0  0  0
   -2.2151    1.2438   -2.5144 H   0  0  0  0  0  0  0  0  0  0  0  0
   -3.9174    1.2240   -1.9001 H   0  0  0  0  0  0  0  0  0  0  0  0
   -3.0398   -0.3000   -2.2567 H   0  0  0  0  0  0  0  0  0  0  0  0
    0.6096   -2.6614    1.2391 H   0  0  0  0  0  0  0  0  0  0  0  0
   -0.4335   -3.0994   -0.1189 H   0  0  0  0  0  0  0  0  0  0  0  0
   -0.8945   -3.5708    1.5668 H   0  0  0  0  0  0  0  0  0  0  0  0
    0.0168    1.5193   -1.9028 O   0  0  0  0  0  0  0  0  0  0  0  0
    0.8385    1.4908   -2.4144 H   0  0  0  0  0  0  0  0  0  0  0  0
   -0.5113   -1.7670   -1.8140 F   0  0  0  0  0  0  0  0  0  0  0  0
  4  3  1  0  0  0  0
  4  1  1  0  0  0  0
  7 12  1  0  0  0  0
  7  2  1  0  0  0  0
  9 11  1  0  0  0  0
 10 41  1  0  0  0  0
 10 43  1  0  0  0  0
 11  7  1  0  0  0  0
 11  5  1  0  0  0  0
 12 10  1  1  0  0  0
 12  4  1  0  0  0  0
 12 26  9  0  0  0  0
 13  4  1  0  0  0  0
 13  6  1  0  0  0  0
 14  7  1  0  0  0  0
 15 13  1  0  0  0  0
 16 17  1  0  0  0  0
 16  8  1  0  0  0  0
 19 24  1  6  0  0  0
 19 16  1  0  0  0  0
 19 13  1  0  0  0  0
 19 26  9  0  0  0  0
 20 23  1  6  0  0  0
 20 21  1  0  0  0  0
 20 11  1  0  0  0  0
 20 26  9  0  0  0  0
 21 18  1  0  0  0  0
 21 16  1  0  0  0  0
 24 22  1  0  0  0  0
 25 21  1  0  0  0  0
 27 24  1  0  0  0  0
 28 31  2  0  0  0  0
 28 24  1  0  0  0  0
 29 28  1  0  0  0  0
 29 26  9  0  0  0  0
 31 30  1  0  0  0  0
 32 35  1  0  0  0  0
 32 29  2  0  0  0  0
 33 32  1  0  0  0  0
 34 36  1  0  0  0  0
 34 31  1  0  0  0  0
 35 34  2  0  0  0  0
 37 35  1  0  0  0  0
 38 23  1  0  0  0  0
 39 23  1  0  0  0  0
 40 23  1  0  0  0  0
 42 10  1  0  0  0  0
 44 26  1  0  0  0  0
 45 44  1  0  0  0  0
 46 26  1  0  0  0  0
M  END
$$$$
