
 OpenBabel02052520063D

 49 53  0  0  0  0  0  0  0  0999 V2000
    0.4122   -2.5144    2.6231 H   0  0  0  0  0  0  0  0  0  0  0  0
    3.0335   -0.8009    2.4858 H   0  0  0  0  0  0  0  0  0  0  0  0
    1.6546   -2.6327    1.4002 H   0  0  0  0  0  0  0  0  0  0  0  0
    0.7333   -2.1018    1.6564 C   0  0  0  0  0  0  0  0  0  0  0  0
    3.0839   -1.7686    0.2043 H   0  0  0  0  0  0  0  0  0  0  0  0
   -0.4485   -3.4892    0.4814 H   0  0  0  0  0  0  0  0  0  0  0  0
    2.4434   -0.3137    1.6883 C   0  0  0  0  0  0  0  0  0  0  0  0
    1.6072   -2.8892   -0.8097 H   0  0  0  0  0  0  0  0  0  0  0  0
    4.0896   -0.3431    0.2999 H   0  0  0  0  0  0  0  0  0  0  0  0
    0.3632   -0.0491    2.9470 C   0  0  0  0  0  0  0  0  0  0  0  0
    3.0450   -0.6829    0.3226 C   0  0  0  0  0  0  0  0  0  0  0  0
    1.0124   -0.6553    1.7749 N   0  0  2  0  0  0  0  0  0  0  0  0
   -0.3556   -2.3961    0.6121 C   0  0  0  0  0  0  0  0  0  0  0  0
    2.5078    0.7703    1.8203 H   0  0  0  0  0  0  0  0  0  0  0  0
   -1.3151   -2.0312    0.9879 H   0  0  0  0  0  0  0  0  0  0  0  0
    1.0406   -2.1851   -1.4262 C   0  0  0  0  0  0  0  0  0  0  0  0
    0.7255   -2.7540   -2.3141 H   0  0  0  0  0  0  0  0  0  0  0  0
    2.8571   -1.4546   -2.3613 H   0  0  0  0  0  0  0  0  0  0  0  0
   -0.1165   -1.7033   -0.6604 N   0  0  1  0  0  0  0  0  0  0  0  0
    2.2835   -0.0912   -0.8025 N   0  0  2  0  0  0  0  0  0  0  0  0
    1.9519   -1.0324   -1.8887 C   0  0  0  0  0  0  0  0  0  0  0  0
   -1.7896   -2.5042   -1.7541 H   0  0  0  0  0  0  0  0  0  0  0  0
    2.9484    1.1193   -1.3097 C   0  0  0  0  0  0  0  0  0  0  0  0
   -1.3472   -1.5350   -1.4665 C   0  0  0  0  0  0  0  0  0  0  0  0
    1.4224   -0.4418   -2.6424 H   0  0  0  0  0  0  0  0  0  0  0  0
    0.2232    0.5603   -0.0103 Fe  0  0  0  0  0  0  0  0  0  0  0  0
   -1.0305   -1.0233   -2.3872 H   0  0  0  0  0  0  0  0  0  0  0  0
   -2.3422   -0.6879   -0.7198 C   0  0  0  0  0  0  0  0  0  0  0  0
   -1.7711    0.4130   -0.0937 N   0  0  0  0  0  0  0  0  0  0  0  0
   -4.0709   -1.8613   -1.1409 H   0  0  0  0  0  0  0  0  0  0  0  0
   -3.6915   -0.9700   -0.6449 C   0  0  0  0  0  0  0  0  0  0  0  0
   -2.6348    1.2557    0.5787 C   0  0  0  0  0  0  0  0  0  0  0  0
   -2.1543    2.1129    1.0421 H   0  0  0  0  0  0  0  0  0  0  0  0
   -4.5622   -0.1112    0.0527 C   0  0  0  0  0  0  0  0  0  0  0  0
   -3.9893    1.0291    0.6676 C   0  0  0  0  0  0  0  0  0  0  0  0
   -5.6257   -0.3146    0.1132 H   0  0  0  0  0  0  0  0  0  0  0  0
   -4.6086    1.7349    1.2152 H   0  0  0  0  0  0  0  0  0  0  0  0
    2.3353    1.5552   -2.0986 H   0  0  0  0  0  0  0  0  0  0  0  0
    3.9575    0.9020   -1.6981 H   0  0  0  0  0  0  0  0  0  0  0  0
    3.0075    1.8393   -0.4901 H   0  0  0  0  0  0  0  0  0  0  0  0
   -0.7062   -0.2762    2.9102 H   0  0  0  0  0  0  0  0  0  0  0  0
    0.4757    1.0359    2.8831 H   0  0  0  0  0  0  0  0  0  0  0  0
    0.7816   -0.4242    3.8972 H   0  0  0  0  0  0  0  0  0  0  0  0
    0.0598    1.9214   -2.0549 O   0  0  0  0  0  0  0  0  0  0  0  0
    0.8369    2.2209    0.8536 O   0  0  0  0  0  0  0  0  0  0  0  0
    0.2482    2.6677   -1.4227 H   0  0  0  0  0  0  0  0  0  0  0  0
   -0.9042    1.8116   -1.9992 H   0  0  0  0  0  0  0  0  0  0  0  0
    0.5700    3.4651    0.0702 O   0  0  0  0  0  0  0  0  0  0  0  0
    1.4412    3.8909    0.1242 H   0  0  0  0  0  0  0  0  0  0  0  0
  3  4  1  0  0  0  0
  4 12  1  0  0  0  0
  4  1  1  0  0  0  0
  5 11  1  0  0  0  0
  6 13  1  0  0  0  0
  7 12  1  0  0  0  0
  7 14  1  0  0  0  0
  7  2  1  0  0  0  0
  9 11  1  0  0  0  0
 10 43  1  0  0  0  0
 11  7  1  0  0  0  0
 12 10  1  1  0  0  0
 12 26  9  0  0  0  0
 13 15  1  0  0  0  0
 13  4  1  0  0  0  0
 16  8  1  0  0  0  0
 16 19  1  0  0  0  0
 17 16  1  0  0  0  0
 18 21  1  0  0  0  0
 19 24  1  6  0  0  0
 19 13  1  0  0  0  0
 19 26  9  0  0  0  0
 20 23  1  6  0  0  0
 20 11  1  0  0  0  0
 20 26  9  0  0  0  0
 21 16  1  0  0  0  0
 21 20  1  0  0  0  0
 22 24  1  0  0  0  0
 23 40  1  0  0  0  0
 24 28  1  0  0  0  0
 25 21  1  0  0  0  0
 26 45  1  0  0  0  0
 27 24  1  0  0  0  0
 28 31  1  0  0  0  0
 28 29  2  0  0  0  0
 29 32  1  0  0  0  0
 29 26  9  0  0  0  0
 30 31  1  0  0  0  0
 31 34  2  0  0  0  0
 32 35  2  0  0  0  0
 32 33  1  0  0  0  0
 34 36  1  0  0  0  0
 34 35  1  0  0  0  0
 35 37  1  0  0  0  0
 38 23  1  0  0  0  0
 39 23  1  0  0  0  0
 41 10  1  0  0  0  0
 42 10  1  0  0  0  0
 44 47  1  0  0  0  0
 44 46  1  0  0  0  0
 44 26  9  0  0  0  0
 48 49  1  0  0  0  0
 48 45  1  0  0  0  0
M  END
$$$$
