
 OpenBabel02052520073D

 46 50  0  0  0  0  0  0  0  0999 V2000
   -0.9127    3.3975   -1.1599 H   0  0  0  0  0  0  0  0  0  0  0  0
   -3.3111    2.4068    0.5701 H   0  0  0  0  0  0  0  0  0  0  0  0
   -2.0419    2.1604   -1.6566 H   0  0  0  0  0  0  0  0  0  0  0  0
   -1.1065    2.3161   -1.1136 C   0  0  0  0  0  0  0  0  0  0  0  0
   -3.3321    0.6755   -1.2159 H   0  0  0  0  0  0  0  0  0  0  0  0
    0.0608    1.8522   -2.8866 H   0  0  0  0  0  0  0  0  0  0  0  0
   -2.6380    1.5345    0.6600 C   0  0  0  0  0  0  0  0  0  0  0  0
   -1.8074    0.2890   -2.7456 H   0  0  0  0  0  0  0  0  0  0  0  0
   -4.2076    0.1355    0.1956 H   0  0  0  0  0  0  0  0  0  0  0  0
   -0.6185    2.7826    1.2326 C   0  0  0  0  0  0  0  0  0  0  0  0
   -3.2008    0.3738   -0.1729 C   0  0  0  0  0  0  0  0  0  0  0  0
   -1.2542    1.8628    0.2796 N   0  0  2  0  0  0  0  0  0  0  0  0
    0.0396    1.5795   -1.8170 C   0  0  0  0  0  0  0  0  0  0  0  0
   -2.5973    1.2309    1.7101 H   0  0  0  0  0  0  0  0  0  0  0  0
    0.9827    1.9119   -1.3776 H   0  0  0  0  0  0  0  0  0  0  0  0
   -1.1817   -0.5067   -2.3305 C   0  0  0  0  0  0  0  0  0  0  0  0
   -0.8381   -1.0961   -3.1914 H   0  0  0  0  0  0  0  0  0  0  0  0
   -2.9417   -1.7115   -1.9677 H   0  0  0  0  0  0  0  0  0  0  0  0
   -0.0355    0.1189   -1.6316 N   0  0  1  0  0  0  0  0  0  0  0  0
   -2.3310   -0.8242   -0.1116 N   0  0  2  0  0  0  0  0  0  0  0  0
   -2.0239   -1.4264   -1.4236 C   0  0  0  0  0  0  0  0  0  0  0  0
    1.6174   -0.3146   -2.9273 H   0  0  0  0  0  0  0  0  0  0  0  0
   -2.8728   -1.8204    0.8319 C   0  0  0  0  0  0  0  0  0  0  0  0
    1.2574   -0.5281   -1.9064 C   0  0  0  0  0  0  0  0  0  0  0  0
   -1.4508   -2.3313   -1.2103 H   0  0  0  0  0  0  0  0  0  0  0  0
   -0.2756   -0.2741    0.7345 Fe  0  0  0  0  0  0  0  0  0  0  0  0
    1.1099   -1.6082   -1.7997 H   0  0  0  0  0  0  0  0  0  0  0  0
    2.3009   -0.1209   -0.8819 C   0  0  0  0  0  0  0  0  0  0  0  0
    1.8338    0.1779    0.3419 N   0  0  0  0  0  0  0  0  0  0  0  0
    4.0172   -0.3338   -2.1656 H   0  0  0  0  0  0  0  0  0  0  0  0
    3.6659   -0.0996   -1.1649 C   0  0  0  0  0  0  0  0  0  0  0  0
    2.6888    0.4796    1.3271 C   0  0  0  0  0  0  0  0  0  0  0  0
    2.2202    0.6810    2.2865 H   0  0  0  0  0  0  0  0  0  0  0  0
    4.5616    0.2161   -0.1424 C   0  0  0  0  0  0  0  0  0  0  0  0
    4.0672    0.5099    1.1297 C   0  0  0  0  0  0  0  0  0  0  0  0
    5.6304    0.2319   -0.3368 H   0  0  0  0  0  0  0  0  0  0  0  0
    4.7320    0.7561    1.9514 H   0  0  0  0  0  0  0  0  0  0  0  0
   -2.1574   -2.6385    0.9276 H   0  0  0  0  0  0  0  0  0  0  0  0
   -3.8528   -2.2023    0.5006 H   0  0  0  0  0  0  0  0  0  0  0  0
   -2.9739   -1.3450    1.8111 H   0  0  0  0  0  0  0  0  0  0  0  0
    0.4214    2.9374    0.9283 H   0  0  0  0  0  0  0  0  0  0  0  0
   -0.6133    2.3088    2.2159 H   0  0  0  0  0  0  0  0  0  0  0  0
   -1.1305    3.7598    1.2697 H   0  0  0  0  0  0  0  0  0  0  0  0
   -0.5030    0.1052    2.5710 O   0  0  0  0  0  0  0  0  0  0  0  0
   -0.3226   -0.6812    3.1081 H   0  0  0  0  0  0  0  0  0  0  0  0
    0.4566   -2.6632    0.5874 Cl  0  0  0  0  0  0  0  0  0  0  0  0
  1  4  1  0  0  0  0
  2  7  1  0  0  0  0
  3  4  1  0  0  0  0
  4 12  1  0  0  0  0
  5 11  1  0  0  0  0
  6 13  1  0  0  0  0
  7 14  1  0  0  0  0
  8 16  1  0  0  0  0
 10 43  1  0  0  0  0
 10 42  1  0  0  0  0
 11 20  1  0  0  0  0
 11  9  1  0  0  0  0
 11  7  1  0  0  0  0
 12  7  1  0  0  0  0
 12 10  1  1  0  0  0
 12 26  9  0  0  0  0
 13 19  1  0  0  0  0
 13 15  1  0  0  0  0
 13  4  1  0  0  0  0
 16 21  1  0  0  0  0
 17 16  1  0  0  0  0
 18 21  1  0  0  0  0
 19 16  1  6  0  0  0
 19 26  9  0  0  0  0
 20 23  1  1  0  0  0
 20 26  9  0  0  0  0
 21 25  1  0  0  0  0
 21 20  1  0  0  0  0
 22 24  1  0  0  0  0
 23 38  1  0  0  0  0
 23 40  1  0  0  0  0
 24 27  1  0  0  0  0
 24 19  1  0  0  0  0
 24 28  1  0  0  0  0
 26 44  1  0  0  0  0
 28 29  2  0  0  0  0
 29 32  1  0  0  0  0
 29 26  9  0  0  0  0
 30 31  1  0  0  0  0
 31 28  1  0  0  0  0
 31 34  2  0  0  0  0
 32 33  1  0  0  0  0
 34 35  1  0  0  0  0
 35 32  2  0  0  0  0
 35 37  1  0  0  0  0
 36 34  1  0  0  0  0
 39 23  1  0  0  0  0
 41 10  1  0  0  0  0
 44 45  1  0  0  0  0
 46 26  1  0  0  0  0
M  END
$$$$
