
 OpenBabel02052520063D

 48 52  0  0  0  0  0  0  0  0999 V2000
   -0.1650   -1.3273    3.4104 H   0  0  0  0  0  0  0  0  0  0  0  0
    2.7228   -1.0365    2.4781 H   0  0  0  0  0  0  0  0  0  0  0  0
    0.6103   -2.4142    2.2833 H   0  0  0  0  0  0  0  0  0  0  0  0
    0.0299   -1.4910    2.3407 C   0  0  0  0  0  0  0  0  0  0  0  0
    2.0191   -2.7935    0.8821 H   0  0  0  0  0  0  0  0  0  0  0  0
   -1.8136   -2.5801    1.9771 H   0  0  0  0  0  0  0  0  0  0  0  0
    2.2275   -0.7271    1.5407 C   0  0  0  0  0  0  0  0  0  0  0  0
   -0.0900   -3.4713    0.5227 H   0  0  0  0  0  0  0  0  0  0  0  0
    3.4541   -1.9837    0.2978 H   0  0  0  0  0  0  0  0  0  0  0  0
    0.6637    0.8459    2.5655 C   0  0  0  0  0  0  0  0  0  0  0  0
    2.3832   -1.8380    0.4915 C   0  0  0  0  0  0  0  0  0  0  0  0
    0.8110   -0.3783    1.7657 N   0  0  2  0  0  0  0  0  0  0  0  0
   -1.3068   -1.6697    1.6137 C   0  0  0  0  0  0  0  0  0  0  0  0
    2.7309    0.1741    1.1826 H   0  0  0  0  0  0  0  0  0  0  0  0
   -1.9504   -0.8212    1.8561 H   0  0  0  0  0  0  0  0  0  0  0  0
   -0.4208   -2.8916   -0.3441 C   0  0  0  0  0  0  0  0  0  0  0  0
   -1.1085   -3.5463   -0.8965 H   0  0  0  0  0  0  0  0  0  0  0  0
    1.3302   -3.5212   -1.4419 H   0  0  0  0  0  0  0  0  0  0  0  0
   -1.1355   -1.6885    0.1508 N   0  0  1  0  0  0  0  0  0  0  0  0
    1.6669   -1.5133   -0.7590 N   0  0  2  0  0  0  0  0  0  0  0  0
    0.7794   -2.5801   -1.2659 C   0  0  0  0  0  0  0  0  0  0  0  0
   -3.1868   -2.1109   -0.3191 H   0  0  0  0  0  0  0  0  0  0  0  0
    2.5861   -1.0352   -1.8079 C   0  0  0  0  0  0  0  0  0  0  0  0
   -2.3896   -1.3864   -0.5574 C   0  0  0  0  0  0  0  0  0  0  0  0
    0.3956   -2.2102   -2.2184 H   0  0  0  0  0  0  0  0  0  0  0  0
    0.0876    0.1421   -0.5437 Fe  0  0  0  0  0  0  0  0  0  0  0  0
   -2.1652   -1.4269   -1.6288 H   0  0  0  0  0  0  0  0  0  0  0  0
   -2.8682    0.0293   -0.2690 C   0  0  0  0  0  0  0  0  0  0  0  0
   -1.9185    0.9502   -0.0183 N   0  0  0  0  0  0  0  0  0  0  0  0
   -4.9696   -0.3848   -0.5037 H   0  0  0  0  0  0  0  0  0  0  0  0
   -4.2188    0.3765   -0.3132 C   0  0  0  0  0  0  0  0  0  0  0  0
   -2.2633    2.2294    0.1712 C   0  0  0  0  0  0  0  0  0  0  0  0
   -1.4333    2.9091    0.3444 H   0  0  0  0  0  0  0  0  0  0  0  0
   -4.5817    1.7097   -0.1155 C   0  0  0  0  0  0  0  0  0  0  0  0
   -3.5886    2.6590    0.1296 C   0  0  0  0  0  0  0  0  0  0  0  0
   -5.6275    2.0021   -0.1515 H   0  0  0  0  0  0  0  0  0  0  0  0
   -3.8308    3.7053    0.2848 H   0  0  0  0  0  0  0  0  0  0  0  0
    1.9835   -0.6672   -2.6401 H   0  0  0  0  0  0  0  0  0  0  0  0
    3.2655   -1.8338   -2.1502 H   0  0  0  0  0  0  0  0  0  0  0  0
    3.1741   -0.2024   -1.4142 H   0  0  0  0  0  0  0  0  0  0  0  0
   -0.4007    1.0885    2.6465 H   0  0  0  0  0  0  0  0  0  0  0  0
    1.1587    1.6707    2.0528 H   0  0  0  0  0  0  0  0  0  0  0  0
    1.0824    0.7309    3.5793 H   0  0  0  0  0  0  0  0  0  0  0  0
   -0.4134   -0.1312   -2.3730 O   0  0  0  0  0  0  0  0  0  0  0  0
   -0.3330    0.6748   -2.9038 H   0  0  0  0  0  0  0  0  0  0  0  0
    1.2575    1.8623   -0.4291 N   0  0  0  0  0  0  0  0  0  0  0  0
    2.3810    2.2403   -0.3328 C   0  0  0  0  0  0  0  0  0  0  0  0
    3.9331    2.7050   -0.1540 S   0  0  0  0  0  0  0  0  0  0  0  0
  3  4  1  0  0  0  0
  4  1  1  0  0  0  0
  7 12  1  0  0  0  0
  7  2  1  0  0  0  0
  9 11  1  0  0  0  0
 10 41  1  0  0  0  0
 10 43  1  0  0  0  0
 11  5  1  0  0  0  0
 11  7  1  0  0  0  0
 12  4  1  0  0  0  0
 12 10  1  1  0  0  0
 12 26  9  0  0  0  0
 13 15  1  0  0  0  0
 13  6  1  0  0  0  0
 13  4  1  0  0  0  0
 14  7  1  0  0  0  0
 16 19  1  0  0  0  0
 16  8  1  0  0  0  0
 17 16  1  0  0  0  0
 18 21  1  0  0  0  0
 19 24  1  6  0  0  0
 19 13  1  0  0  0  0
 19 26  9  0  0  0  0
 20 23  1  6  0  0  0
 20 11  1  0  0  0  0
 20 26  9  0  0  0  0
 21 20  1  0  0  0  0
 21 16  1  0  0  0  0
 23 40  1  0  0  0  0
 24 22  1  0  0  0  0
 24 28  1  0  0  0  0
 25 21  1  0  0  0  0
 26 46  1  0  0  0  0
 27 24  1  0  0  0  0
 28 29  2  0  0  0  0
 29 32  1  0  0  0  0
 29 26  9  0  0  0  0
 30 31  1  0  0  0  0
 31 28  1  0  0  0  0
 31 34  2  0  0  0  0
 32 33  1  0  0  0  0
 34 35  1  0  0  0  0
 35 32  2  0  0  0  0
 35 37  1  0  0  0  0
 36 34  1  0  0  0  0
 38 23  1  0  0  0  0
 39 23  1  0  0  0  0
 42 10  1  0  0  0  0
 44 26  1  0  0  0  0
 45 44  1  0  0  0  0
 46 47  2  0  0  0  0
 47 48  2  0  0  0  0
M  END
$$$$
