
 OpenBabel02052520063D

 46 50  0  0  0  0  0  0  0  0999 V2000
    0.6872   -0.9296    3.4250 H   0  0  0  0  0  0  0  0  0  0  0  0
    3.1273    0.6613    2.4236 H   0  0  0  0  0  0  0  0  0  0  0  0
    1.8436   -1.5756    2.2858 H   0  0  0  0  0  0  0  0  0  0  0  0
    0.9171   -1.0013    2.3521 C   0  0  0  0  0  0  0  0  0  0  0  0
    3.2584   -1.3038    0.8973 H   0  0  0  0  0  0  0  0  0  0  0  0
   -0.2762   -2.7885    2.0326 H   0  0  0  0  0  0  0  0  0  0  0  0
    2.5269    0.6616    1.4959 C   0  0  0  0  0  0  0  0  0  0  0  0
    1.6489   -2.8721    0.5661 H   0  0  0  0  0  0  0  0  0  0  0  0
    4.1842    0.0396    0.2706 H   0  0  0  0  0  0  0  0  0  0  0  0
    0.4493    1.3736    2.5614 C   0  0  0  0  0  0  0  0  0  0  0  0
    3.1593   -0.2982    0.4766 C   0  0  0  0  0  0  0  0  0  0  0  0
    1.1130    0.3353    1.7598 N   0  0  2  0  0  0  0  0  0  0  0  0
   -0.2163   -1.7550    1.6492 C   0  0  0  0  0  0  0  0  0  0  0  0
    2.5333    1.6729    1.0784 H   0  0  0  0  0  0  0  0  0  0  0  0
   -1.1613   -1.2635    1.8914 H   0  0  0  0  0  0  0  0  0  0  0  0
    1.0955   -2.5046   -0.3034 C   0  0  0  0  0  0  0  0  0  0  0  0
    0.7566   -3.4005   -0.8417 H   0  0  0  0  0  0  0  0  0  0  0  0
    2.9468   -2.3313   -1.4054 H   0  0  0  0  0  0  0  0  0  0  0  0
   -0.0655   -1.7226    0.1857 N   0  0  1  0  0  0  0  0  0  0  0  0
    2.3717   -0.3618   -0.7696 N   0  0  2  0  0  0  0  0  0  0  0  0
    2.0405   -1.7208   -1.2428 C   0  0  0  0  0  0  0  0  0  0  0  0
   -1.7409   -2.9899   -0.2560 H   0  0  0  0  0  0  0  0  0  0  0  0
    2.9666    0.4582   -1.8389 C   0  0  0  0  0  0  0  0  0  0  0  0
   -1.3327   -1.9967   -0.5099 C   0  0  0  0  0  0  0  0  0  0  0  0
    1.5317   -1.5768   -2.1974 H   0  0  0  0  0  0  0  0  0  0  0  0
    0.2472    0.4603   -0.5575 Fe  0  0  0  0  0  0  0  0  0  0  0  0
   -1.1196   -1.9489   -1.5834 H   0  0  0  0  0  0  0  0  0  0  0  0
   -2.3695   -0.9181   -0.2286 C   0  0  0  0  0  0  0  0  0  0  0  0
   -1.9033    0.3275   -0.0221 N   0  0  0  0  0  0  0  0  0  0  0  0
   -4.0950   -2.1988   -0.3926 H   0  0  0  0  0  0  0  0  0  0  0  0
   -3.7390   -1.1843   -0.2379 C   0  0  0  0  0  0  0  0  0  0  0  0
   -2.7564    1.3438    0.1513 C   0  0  0  0  0  0  0  0  0  0  0  0
   -2.2863    2.3161    0.2764 H   0  0  0  0  0  0  0  0  0  0  0  0
   -4.6337   -0.1286   -0.0527 C   0  0  0  0  0  0  0  0  0  0  0  0
   -4.1387    1.1613    0.1428 C   0  0  0  0  0  0  0  0  0  0  0  0
   -5.7045   -0.3131   -0.0614 H   0  0  0  0  0  0  0  0  0  0  0  0
   -4.8036    2.0073    0.2839 H   0  0  0  0  0  0  0  0  0  0  0  0
    2.2722    0.4648   -2.6805 H   0  0  0  0  0  0  0  0  0  0  0  0
    3.9526    0.0740   -2.1517 H   0  0  0  0  0  0  0  0  0  0  0  0
    3.0602    1.4853   -1.4780 H   0  0  0  0  0  0  0  0  0  0  0  0
   -0.6090    1.1144    2.6673 H   0  0  0  0  0  0  0  0  0  0  0  0
    0.5101    2.3244    2.0299 H   0  0  0  0  0  0  0  0  0  0  0  0
    0.8970    1.4658    3.5659 H   0  0  0  0  0  0  0  0  0  0  0  0
   -0.0929   -0.0652   -2.3727 O   0  0  0  0  0  0  0  0  0  0  0  0
   -0.3708    0.6974   -2.9017 H   0  0  0  0  0  0  0  0  0  0  0  0
    0.5205    2.8664   -0.5197 Cl  0  0  0  0  0  0  0  0  0  0  0  0
  3  4  1  0  0  0  0
  4  1  1  0  0  0  0
  7 12  1  0  0  0  0
  7  2  1  0  0  0  0
  9 11  1  0  0  0  0
 10 41  1  0  0  0  0
 10 43  1  0  0  0  0
 11  5  1  0  0  0  0
 11  7  1  0  0  0  0
 12  4  1  0  0  0  0
 12 10  1  1  0  0  0
 12 26  9  0  0  0  0
 13 15  1  0  0  0  0
 13  6  1  0  0  0  0
 13  4  1  0  0  0  0
 14  7  1  0  0  0  0
 16 19  1  0  0  0  0
 16  8  1  0  0  0  0
 17 16  1  0  0  0  0
 18 21  1  0  0  0  0
 19 24  1  6  0  0  0
 19 13  1  0  0  0  0
 19 26  9  0  0  0  0
 20 23  1  6  0  0  0
 20 11  1  0  0  0  0
 20 26  9  0  0  0  0
 21 20  1  0  0  0  0
 21 16  1  0  0  0  0
 23 40  1  0  0  0  0
 24 22  1  0  0  0  0
 24 28  1  0  0  0  0
 25 21  1  0  0  0  0
 26 46  1  0  0  0  0
 27 24  1  0  0  0  0
 28 29  2  0  0  0  0
 29 32  1  0  0  0  0
 29 26  9  0  0  0  0
 30 31  1  0  0  0  0
 31 28  1  0  0  0  0
 31 34  2  0  0  0  0
 32 33  1  0  0  0  0
 34 35  1  0  0  0  0
 35 32  2  0  0  0  0
 35 37  1  0  0  0  0
 36 34  1  0  0  0  0
 38 23  1  0  0  0  0
 39 23  1  0  0  0  0
 42 10  1  0  0  0  0
 44 26  1  0  0  0  0
 45 44  1  0  0  0  0
M  END
$$$$
