
 OpenBabel02052520073D

 46 50  0  0  0  0  0  0  0  0999 V2000
   -2.3318   -0.0733   -0.0349 N   0  0  2  0  0  0  0  0  0  0  0  0
   -2.8185    1.3480    0.1165 C   0  0  0  0  0  0  0  0  0  0  0  0
   -1.9362    2.3039   -0.6660 C   0  0  0  0  0  0  0  0  0  0  0  0
   -0.4771    2.0695   -0.4129 N   0  0  1  0  0  0  0  0  0  0  0  0
    0.0327    2.5240    0.9170 C   0  0  0  0  0  0  0  0  0  0  0  0
   -0.3755    1.5854    2.0421 C   0  0  0  0  0  0  0  0  0  0  0  0
   -0.2220    0.1323    1.6415 N   0  0  2  0  0  0  0  0  0  0  0  0
   -2.5274   -0.8525    1.2392 C   0  0  0  0  0  0  0  0  0  0  0  0
   -1.3395   -0.7017    2.2243 C   0  0  0  0  0  0  0  0  0  0  0  0
    1.1380   -0.3871    2.0315 C   0  0  0  0  0  0  0  0  0  0  0  0
    2.1509   -0.0379    0.9765 C   0  0  0  0  0  0  0  0  0  0  0  0
    1.6507    0.0856   -0.2759 N   0  0  0  0  0  0  0  0  0  0  0  0
    2.4745    0.2299   -1.3325 C   0  0  0  0  0  0  0  0  0  0  0  0
    3.8531    0.2883   -1.1659 C   0  0  0  0  0  0  0  0  0  0  0  0
    4.3833    0.2007    0.1235 C   0  0  0  0  0  0  0  0  0  0  0  0
    3.5194    0.0359    1.2094 C   0  0  0  0  0  0  0  0  0  0  0  0
   -0.3185   -0.0066   -0.4207 Fe  0  2  0  0  0  0  0  0  0  0  0  0
   -3.0872   -0.7343   -1.1492 C   0  0  0  0  0  0  0  0  0  0  0  0
    0.2967    2.7556   -1.4886 C   0  0  0  0  0  0  0  0  0  0  0  0
   -2.8546    1.5987    1.1736 H   0  0  0  0  0  0  0  0  0  0  0  0
   -3.8471    1.4158   -0.2513 H   0  0  0  0  0  0  0  0  0  0  0  0
   -2.1944    3.3450   -0.4371 H   0  0  0  0  0  0  0  0  0  0  0  0
   -2.0826    2.1465   -1.7360 H   0  0  0  0  0  0  0  0  0  0  0  0
   -0.3139    3.5436    1.1262 H   0  0  0  0  0  0  0  0  0  0  0  0
    1.1201    2.5566    0.8375 H   0  0  0  0  0  0  0  0  0  0  0  0
   -1.4075    1.7465    2.3400 H   0  0  0  0  0  0  0  0  0  0  0  0
    0.2346    1.7832    2.9285 H   0  0  0  0  0  0  0  0  0  0  0  0
   -2.6151   -1.9011    0.9601 H   0  0  0  0  0  0  0  0  0  0  0  0
   -3.4771   -0.5474    1.6909 H   0  0  0  0  0  0  0  0  0  0  0  0
   -0.9404   -1.6934    2.4299 H   0  0  0  0  0  0  0  0  0  0  0  0
   -1.6455   -0.2637    3.1785 H   0  0  0  0  0  0  0  0  0  0  0  0
    1.4193   -0.0199    3.0232 H   0  0  0  0  0  0  0  0  0  0  0  0
    1.9974    0.2992   -2.3019 H   0  0  0  0  0  0  0  0  0  0  0  0
    4.4923    0.3998   -2.0350 H   0  0  0  0  0  0  0  0  0  0  0  0
    5.4560    0.2506    0.2825 H   0  0  0  0  0  0  0  0  0  0  0  0
    3.9016   -0.0537    2.2212 H   0  0  0  0  0  0  0  0  0  0  0  0
   -3.0025   -0.1212   -2.0462 H   0  0  0  0  0  0  0  0  0  0  0  0
   -2.6640   -1.7198   -1.3373 H   0  0  0  0  0  0  0  0  0  0  0  0
   -4.1395   -0.8332   -0.8617 H   0  0  0  0  0  0  0  0  0  0  0  0
    0.0192    2.3346   -2.4539 H   0  0  0  0  0  0  0  0  0  0  0  0
    0.0703    3.8279   -1.4713 H   0  0  0  0  0  0  0  0  0  0  0  0
    1.3632    2.6134   -1.3213 H   0  0  0  0  0  0  0  0  0  0  0  0
    1.0757   -1.4776    2.0787 H   0  0  0  0  0  0  0  0  0  0  0  0
   -0.4448    0.0767   -2.1581 O   0  0  0  0  0  0  0  0  0  0  0  0
   -0.4463   -0.7944   -2.6030 H   0  0  0  0  0  0  0  0  0  0  0  0
   -0.0744   -2.4493   -0.4029 Br  0  0  0  0  0  0  0  0  0  0  0  0
  1 18  1  6  0  0  0
  1  2  1  0  0  0  0
  1  8  1  0  0  0  0
  1 17  9  0  0  0  0
  2 20  1  0  0  0  0
  3 22  1  0  0  0  0
  3  4  1  0  0  0  0
  3  2  1  0  0  0  0
  4 19  1  6  0  0  0
  4  5  1  0  0  0  0
  4 17  9  0  0  0  0
  5 24  1  0  0  0  0
  5  6  1  0  0  0  0
  6 26  1  0  0  0  0
  6 27  1  0  0  0  0
  7 10  1  1  0  0  0
  7  6  1  0  0  0  0
  7  9  1  0  0  0  0
  7 17  9  0  0  0  0
  8 29  1  0  0  0  0
  8  9  1  0  0  0  0
  9 30  1  0  0  0  0
  9 31  1  0  0  0  0
 10 43  1  0  0  0  0
 10 32  1  0  0  0  0
 11 16  2  0  0  0  0
 11 10  1  0  0  0  0
 12 11  1  0  0  0  0
 12 17  9  0  0  0  0
 13 14  1  0  0  0  0
 13 12  2  0  0  0  0
 14 15  2  0  0  0  0
 15 35  1  0  0  0  0
 15 16  1  0  0  0  0
 16 36  1  0  0  0  0
 17 46  1  0  0  0  0
 18 39  1  0  0  0  0
 19 41  1  0  0  0  0
 19 42  1  0  0  0  0
 21  2  1  0  0  0  0
 23  3  1  0  0  0  0
 25  5  1  0  0  0  0
 28  8  1  0  0  0  0
 33 13  1  0  0  0  0
 34 14  1  0  0  0  0
 37 18  1  0  0  0  0
 38 18  1  0  0  0  0
 40 19  1  0  0  0  0
 44 17  1  0  0  0  0
 45 44  1  0  0  0  0
M  CHG  1  17   2
M  END
$$$$
