
 OpenBabel02072512503D

 48 51  0  0  0  0  0  0  0  0999 V2000
   -2.3787   -0.1916   -0.4366 N   0  0  2  0  0  0  0  0  0  0  0  0
   -2.8429    0.5179    0.8062 C   0  0  0  0  0  0  0  0  0  0  0  0
   -1.9661    1.7277    1.0852 C   0  0  0  0  0  0  0  0  0  0  0  0
   -0.5027    1.4086    0.9995 N   0  0  1  0  0  0  0  0  0  0  0  0
    0.0594    0.6760    2.1747 C   0  0  0  0  0  0  0  0  0  0  0  0
   -0.3447   -0.7924    2.1921 C   0  0  0  0  0  0  0  0  0  0  0  0
   -0.3142   -1.4030    0.8068 N   0  0  2  0  0  0  0  0  0  0  0  0
   -2.5652   -1.6751   -0.3250 C   0  0  0  0  0  0  0  0  0  0  0  0
   -1.4979   -2.3223    0.5854 C   0  0  0  0  0  0  0  0  0  0  0  0
    0.9919   -2.0991    0.5524 C   0  0  0  0  0  0  0  0  0  0  0  0
    2.0558   -1.0921    0.2058 C   0  0  0  0  0  0  0  0  0  0  0  0
    1.5995    0.0056   -0.4461 N   0  0  0  0  0  0  0  0  0  0  0  0
    2.4599    0.9197   -0.9367 C   0  0  0  0  0  0  0  0  0  0  0  0
    3.8330    0.7786   -0.7661 C   0  0  0  0  0  0  0  0  0  0  0  0
    4.3169   -0.3301   -0.0680 C   0  0  0  0  0  0  0  0  0  0  0  0
    3.4154   -1.2789    0.4248 C   0  0  0  0  0  0  0  0  0  0  0  0
   -0.3735    0.1074   -0.6261 Fe  0  2  0  0  0  0  0  0  0  0  0  0
   -3.1222    0.3170   -1.6302 C   0  0  0  0  0  0  0  0  0  0  0  0
    0.2358    2.6982    0.8518 C   0  0  0  0  0  0  0  0  0  0  0  0
   -2.8394   -0.1890    1.6329 H   0  0  0  0  0  0  0  0  0  0  0  0
   -3.8819    0.8376    0.6751 H   0  0  0  0  0  0  0  0  0  0  0  0
   -2.2045    2.1604    2.0645 H   0  0  0  0  0  0  0  0  0  0  0  0
   -2.1503    2.4914    0.3274 H   0  0  0  0  0  0  0  0  0  0  0  0
   -0.2466    1.1617    3.1098 H   0  0  0  0  0  0  0  0  0  0  0  0
    1.1442    0.7619    2.1023 H   0  0  0  0  0  0  0  0  0  0  0  0
   -1.3458   -0.9143    2.5973 H   0  0  0  0  0  0  0  0  0  0  0  0
    0.3251   -1.3505    2.8537 H   0  0  0  0  0  0  0  0  0  0  0  0
   -2.4761   -2.0772   -1.3322 H   0  0  0  0  0  0  0  0  0  0  0  0
   -3.5787   -1.8824    0.0373 H   0  0  0  0  0  0  0  0  0  0  0  0
   -1.1469   -3.2376    0.1089 H   0  0  0  0  0  0  0  0  0  0  0  0
   -1.9048   -2.6074    1.5578 H   0  0  0  0  0  0  0  0  0  0  0  0
    1.2719   -2.7265    1.4049 H   0  0  0  0  0  0  0  0  0  0  0  0
    2.0135    1.7555   -1.4620 H   0  0  0  0  0  0  0  0  0  0  0  0
    4.5033    1.5267   -1.1751 H   0  0  0  0  0  0  0  0  0  0  0  0
    5.3836   -0.4605    0.0863 H   0  0  0  0  0  0  0  0  0  0  0  0
    3.7630   -2.1574    0.9589 H   0  0  0  0  0  0  0  0  0  0  0  0
   -3.0270    1.4017   -1.6746 H   0  0  0  0  0  0  0  0  0  0  0  0
   -2.6959   -0.1280   -2.5294 H   0  0  0  0  0  0  0  0  0  0  0  0
   -4.1783    0.0381   -1.5492 H   0  0  0  0  0  0  0  0  0  0  0  0
   -0.0717    3.1833   -0.0730 H   0  0  0  0  0  0  0  0  0  0  0  0
    0.0162    3.3472    1.7072 H   0  0  0  0  0  0  0  0  0  0  0  0
    1.3072    2.5047    0.8198 H   0  0  0  0  0  0  0  0  0  0  0  0
    0.8500   -2.7514   -0.3139 H   0  0  0  0  0  0  0  0  0  0  0  0
   -0.4411    1.5420   -1.6403 O   0  0  0  0  0  1  0  0  0  0  0  0
   -0.5830    1.3595   -2.5882 H   0  0  0  0  0  0  0  0  0  0  0  0
   -0.3490   -1.1425   -2.0098 N   0  0  0  0  0  0  0  0  0  0  0  0
    0.5941   -1.1396   -2.8127 N   0  3  0  0  0  0  0  0  0  0  0  0
    1.4283   -1.1966   -3.5898 N   0  5  0  0  0  0  0  0  0  0  0  0
  1 18  1  6  0  0  0
  1  8  1  0  0  0  0
  1  2  1  0  0  0  0
  1 17  9  0  0  0  0
  2  3  1  0  0  0  0
  2 20  1  0  0  0  0
  3 22  1  0  0  0  0
  4 19  1  6  0  0  0
  4  3  1  0  0  0  0
  4  5  1  0  0  0  0
  4 17  9  0  0  0  0
  5  6  1  0  0  0  0
  5 24  1  0  0  0  0
  6 26  1  0  0  0  0
  6 27  1  0  0  0  0
  7 10  1  6  0  0  0
  7  6  1  0  0  0  0
  7 17  9  0  0  0  0
  8 29  1  0  0  0  0
  8  9  1  0  0  0  0
  9  7  1  0  0  0  0
  9 31  1  0  0  0  0
 10 32  1  0  0  0  0
 11 16  2  0  0  0  0
 11 10  1  0  0  0  0
 12 11  1  0  0  0  0
 12 17  9  0  0  0  0
 13 14  1  0  0  0  0
 13 12  2  0  0  0  0
 14 15  2  0  0  0  0
 15 35  1  0  0  0  0
 15 16  1  0  0  0  0
 16 36  1  0  0  0  0
 17 46  1  0  0  0  0
 18 39  1  0  0  0  0
 19 41  1  0  0  0  0
 21  2  1  0  0  0  0
 23  3  1  0  0  0  0
 25  5  1  0  0  0  0
 28  8  1  0  0  0  0
 30  9  1  0  0  0  0
 33 13  1  0  0  0  0
 34 14  1  0  0  0  0
 37 18  1  0  0  0  0
 38 18  1  0  0  0  0
 40 19  1  0  0  0  0
 42 19  1  0  0  0  0
 43 10  1  0  0  0  0
 45 44  1  0  0  0  0
 47 46  2  0  0  0  0
 48 47  2  0  0  0  0
M  RAD  1  44   2
M  CHG  3  17   2  47   1  48  -1
M  END
$$$$
