
 OpenBabel02052520073D

 48 52  0  0  0  0  0  0  0  0999 V2000
    2.2239    0.7793   -0.0061 N   0  0  2  0  0  0  0  0  0  0  0  0
    3.1605   -0.3919    0.0995 C   0  0  0  0  0  0  0  0  0  0  0  0
    2.6654   -1.5164   -0.7925 C   0  0  0  0  0  0  0  0  0  0  0  0
    1.1973   -1.7771   -0.6096 N   0  0  1  0  0  0  0  0  0  0  0  0
    0.8504   -2.5433    0.6274 C   0  0  0  0  0  0  0  0  0  0  0  0
    0.9106   -1.6831    1.8851 C   0  0  0  0  0  0  0  0  0  0  0  0
    0.3732   -0.2909    1.6425 N   0  0  2  0  0  0  0  0  0  0  0  0
    2.1106    1.5116    1.2952 C   0  0  0  0  0  0  0  0  0  0  0  0
    1.2291    0.7529    2.3163 C   0  0  0  0  0  0  0  0  0  0  0  0
   -1.0670   -0.1966    2.0438 C   0  0  0  0  0  0  0  0  0  0  0  0
   -1.9406   -0.8174    0.9839 C   0  0  0  0  0  0  0  0  0  0  0  0
   -1.4592   -0.7099   -0.2769 N   0  0  0  0  0  0  0  0  0  0  0  0
   -2.2043   -1.0999   -1.3277 C   0  0  0  0  0  0  0  0  0  0  0  0
   -3.4694   -1.6516   -1.1508 C   0  0  0  0  0  0  0  0  0  0  0  0
   -3.9637   -1.8041    0.1462 C   0  0  0  0  0  0  0  0  0  0  0  0
   -3.1886   -1.3785    1.2294 C   0  0  0  0  0  0  0  0  0  0  0  0
    0.3646    0.0694   -0.4054 Fe  0  2  0  0  0  0  0  0  0  0  0  0
    2.6979    1.7133   -1.0726 C   0  0  0  0  0  0  0  0  0  0  0  0
    0.7446   -2.5732   -1.7926 C   0  0  0  0  0  0  0  0  0  0  0  0
    3.2285   -0.6952    1.1421 H   0  0  0  0  0  0  0  0  0  0  0  0
    4.1676   -0.0877   -0.2039 H   0  0  0  0  0  0  0  0  0  0  0  0
    3.2396   -2.4350   -0.6222 H   0  0  0  0  0  0  0  0  0  0  0  0
    2.7897   -1.2303   -1.8383 H   0  0  0  0  0  0  0  0  0  0  0  0
    1.5083   -3.4145    0.7352 H   0  0  0  0  0  0  0  0  0  0  0  0
   -0.1638   -2.9172    0.4840 H   0  0  0  0  0  0  0  0  0  0  0  0
    1.9324   -1.5993    2.2471 H   0  0  0  0  0  0  0  0  0  0  0  0
    0.3408   -2.1657    2.6858 H   0  0  0  0  0  0  0  0  0  0  0  0
    1.6620    2.4785    1.0694 H   0  0  0  0  0  0  0  0  0  0  0  0
    3.1125    1.6989    1.6989 H   0  0  0  0  0  0  0  0  0  0  0  0
    0.5835    1.4721    2.8222 H   0  0  0  0  0  0  0  0  0  0  0  0
    1.8300    0.2760    3.0936 H   0  0  0  0  0  0  0  0  0  0  0  0
   -1.2328   -0.6410    3.0313 H   0  0  0  0  0  0  0  0  0  0  0  0
   -1.7515   -0.9568   -2.3016 H   0  0  0  0  0  0  0  0  0  0  0  0
   -4.0478   -1.9567   -2.0160 H   0  0  0  0  0  0  0  0  0  0  0  0
   -4.9422   -2.2430    0.3148 H   0  0  0  0  0  0  0  0  0  0  0  0
   -3.5513   -1.4713    2.2481 H   0  0  0  0  0  0  0  0  0  0  0  0
    2.7997    1.1637   -2.0072 H   0  0  0  0  0  0  0  0  0  0  0  0
    1.9623    2.5058   -1.2086 H   0  0  0  0  0  0  0  0  0  0  0  0
    3.6595    2.1498   -0.7812 H   0  0  0  0  0  0  0  0  0  0  0  0
    0.8663   -1.9727   -2.6917 H   0  0  0  0  0  0  0  0  0  0  0  0
    1.3371   -3.4921   -1.8639 H   0  0  0  0  0  0  0  0  0  0  0  0
   -0.3049   -2.8381   -1.6740 H   0  0  0  0  0  0  0  0  0  0  0  0
   -1.3222    0.8651    2.1086 H   0  0  0  0  0  0  0  0  0  0  0  0
    0.4294    0.2099   -2.1723 O   0  0  0  0  0  0  0  0  0  0  0  0
    0.0960    1.0698   -2.4880 H   0  0  0  0  0  0  0  0  0  0  0  0
   -0.4291    1.7907   -0.2281 N   0  0  0  0  0  0  0  0  0  0  0  0
   -1.0213    2.8214   -0.2733 C   0  0  0  0  0  0  0  0  0  0  0  0
   -1.8213    4.2218   -0.3140 S   0  0  0  0  0  0  0  0  0  0  0  0
  1 18  1  6  0  0  0
  1  2  1  0  0  0  0
  1  8  1  0  0  0  0
  1 17  9  0  0  0  0
  2 20  1  0  0  0  0
  3 22  1  0  0  0  0
  3  4  1  0  0  0  0
  3  2  1  0  0  0  0
  4 19  1  6  0  0  0
  4  5  1  0  0  0  0
  4 17  9  0  0  0  0
  5 24  1  0  0  0  0
  5  6  1  0  0  0  0
  6 26  1  0  0  0  0
  6 27  1  0  0  0  0
  7  6  1  1  0  0  0
  7 10  1  0  0  0  0
  7  9  1  0  0  0  0
  7 17  9  0  0  0  0
  8 29  1  0  0  0  0
  8  9  1  0  0  0  0
  9 30  1  0  0  0  0
  9 31  1  0  0  0  0
 10 43  1  0  0  0  0
 10 32  1  0  0  0  0
 11 16  2  0  0  0  0
 11 10  1  0  0  0  0
 12 11  1  0  0  0  0
 12 17  9  0  0  0  0
 13 14  1  0  0  0  0
 13 12  2  0  0  0  0
 14 15  2  0  0  0  0
 15 35  1  0  0  0  0
 15 16  1  0  0  0  0
 16 36  1  0  0  0  0
 17 46  1  0  0  0  0
 18 39  1  0  0  0  0
 19 42  1  0  0  0  0
 21  2  1  0  0  0  0
 23  3  1  0  0  0  0
 25  5  1  0  0  0  0
 28  8  1  0  0  0  0
 33 13  1  0  0  0  0
 34 14  1  0  0  0  0
 37 18  1  0  0  0  0
 38 18  1  0  0  0  0
 40 19  1  0  0  0  0
 41 19  1  0  0  0  0
 44 17  1  0  0  0  0
 45 44  1  0  0  0  0
 47 46  2  0  0  0  0
 48 47  2  0  0  0  0
M  CHG  1  17   2
M  END
$$$$
