
 OpenBabel02052520073D

 55 61  0  0  0  0  0  0  0  0999 V2000
   -1.4238    0.8646   -1.8653 N   0  0  2  0  0  0  0  0  0  0  0  0
   -1.8940   -0.2681   -2.7209 C   0  0  0  0  0  0  0  0  0  0  0  0
   -2.3056   -1.4673   -1.8744 C   0  0  0  0  0  0  0  0  0  0  0  0
   -1.2681   -1.8780   -0.8797 N   0  0  1  0  0  0  0  0  0  0  0  0
   -0.0831   -2.5906   -1.4427 C   0  0  0  0  0  0  0  0  0  0  0  0
    0.9463   -1.6954   -2.1653 C   0  0  0  0  0  0  0  0  0  0  0  0
    1.0537   -0.3052   -1.6144 N   0  0  2  0  0  0  0  0  0  0  0  0
   -0.3224    1.6205   -2.5132 C   0  0  0  0  0  0  0  0  0  0  0  0
    0.9440    0.7527   -2.6764 C   0  0  0  0  0  0  0  0  0  0  0  0
    2.2355   -0.0915   -0.7276 C   0  0  1  0  0  0  0  0  0  0  0  0
    2.1205    1.3052   -0.1199 C   0  0  0  0  0  0  0  0  0  0  0  0
    2.1849   -1.0738    0.4352 C   0  0  0  0  0  0  0  0  0  0  0  0
    0.9818   -1.1328    1.0465 N   0  0  0  0  0  0  0  0  0  0  0  0
    0.8428   -1.8513    2.1724 C   0  0  0  0  0  0  0  0  0  0  0  0
    1.9013   -2.5766    2.7179 C   0  0  0  0  0  0  0  0  0  0  0  0
    3.1359   -2.5490    2.0684 C   0  0  0  0  0  0  0  0  0  0  0  0
    3.2847   -1.7769    0.9097 C   0  0  0  0  0  0  0  0  0  0  0  0
    0.8794    1.6088    0.3194 N   0  0  0  0  0  0  0  0  0  0  0  0
    0.6623    2.7738    0.9526 C   0  0  0  0  0  0  0  0  0  0  0  0
    1.6836    3.6995    1.1575 C   0  0  0  0  0  0  0  0  0  0  0  0
    2.9639    3.3970    0.6914 C   0  0  0  0  0  0  0  0  0  0  0  0
    3.1894    2.1762    0.0438 C   0  0  0  0  0  0  0  0  0  0  0  0
   -0.5515    0.0025   -0.0196 Fe  0  2  0  0  0  0  0  0  0  0  0  0
   -2.5468    1.7727   -1.5139 C   0  0  0  0  0  0  0  0  0  0  0  0
   -1.9209   -2.7551    0.1338 C   0  0  0  0  0  0  0  0  0  0  0  0
   -1.1034   -0.5405   -3.4175 H   0  0  0  0  0  0  0  0  0  0  0  0
   -2.7463    0.0519   -3.3318 H   0  0  0  0  0  0  0  0  0  0  0  0
   -2.5691   -2.3135   -2.5228 H   0  0  0  0  0  0  0  0  0  0  0  0
   -3.1961   -1.2083   -1.2958 H   0  0  0  0  0  0  0  0  0  0  0  0
   -0.4099   -3.3835   -2.1289 H   0  0  0  0  0  0  0  0  0  0  0  0
    0.4004   -3.0785   -0.5966 H   0  0  0  0  0  0  0  0  0  0  0  0
    0.6931   -1.6203   -3.2217 H   0  0  0  0  0  0  0  0  0  0  0  0
    1.9205   -2.1956   -2.1246 H   0  0  0  0  0  0  0  0  0  0  0  0
   -0.1130    2.4801   -1.8754 H   0  0  0  0  0  0  0  0  0  0  0  0
   -0.6400    2.0036   -3.4924 H   0  0  0  0  0  0  0  0  0  0  0  0
    1.8200    1.4056   -2.6508 H   0  0  0  0  0  0  0  0  0  0  0  0
    0.9601    0.2715   -3.6554 H   0  0  0  0  0  0  0  0  0  0  0  0
    3.1778   -0.1963   -1.2792 H   0  0  0  0  0  0  0  0  0  0  0  0
   -0.1387   -1.8301    2.6347 H   0  0  0  0  0  0  0  0  0  0  0  0
    1.7556   -3.1458    3.6295 H   0  0  0  0  0  0  0  0  0  0  0  0
    3.9778   -3.1108    2.4614 H   0  0  0  0  0  0  0  0  0  0  0  0
    4.2383   -1.7197    0.3946 H   0  0  0  0  0  0  0  0  0  0  0  0
   -0.3522    2.9479    1.2964 H   0  0  0  0  0  0  0  0  0  0  0  0
    1.4759    4.6318    1.6713 H   0  0  0  0  0  0  0  0  0  0  0  0
    3.7805    4.0987    0.8310 H   0  0  0  0  0  0  0  0  0  0  0  0
    4.1761    1.9115   -0.3227 H   0  0  0  0  0  0  0  0  0  0  0  0
   -3.3491    1.1949   -1.0531 H   0  0  0  0  0  0  0  0  0  0  0  0
   -2.1981    2.5121   -0.7900 H   0  0  0  0  0  0  0  0  0  0  0  0
   -2.9291    2.2857   -2.4047 H   0  0  0  0  0  0  0  0  0  0  0  0
   -2.7215   -2.2021    0.6261 H   0  0  0  0  0  0  0  0  0  0  0  0
   -2.3329   -3.6549   -0.3395 H   0  0  0  0  0  0  0  0  0  0  0  0
   -1.1878   -3.0554    0.8821 H   0  0  0  0  0  0  0  0  0  0  0  0
   -1.8618    0.3478    1.2527 N   0  0  0  0  0  0  0  0  0  0  0  0
   -2.7419    0.5913    2.0492 C   0  0  0  0  0  0  0  0  0  0  0  0
   -3.8912    0.9063    3.0817 S   0  0  0  0  0  0  0  0  0  0  0  0
  1 24  1  1  0  0  0
  1 23  9  0  0  0  0
  2  3  1  0  0  0  0
  2  1  1  0  0  0  0
  3 29  1  0  0  0  0
  3  4  1  0  0  0  0
  4 25  1  1  0  0  0
  4 23  9  0  0  0  0
  5  4  1  0  0  0  0
  5 31  1  0  0  0  0
  6 33  1  0  0  0  0
  6  7  1  0  0  0  0
  6  5  1  0  0  0  0
  7  9  1  6  0  0  0
  7 10  1  0  0  0  0
  7 23  9  0  0  0  0
  8 34  1  0  0  0  0
  8  1  1  0  0  0  0
  9 36  1  0  0  0  0
  9  8  1  0  0  0  0
 10 38  1  6  0  0  0
 10 11  1  0  0  0  0
 10 12  1  0  0  0  0
 11 22  1  0  0  0  0
 11 18  2  0  0  0  0
 12 17  1  0  0  0  0
 12 13  2  0  0  0  0
 13 14  1  0  0  0  0
 13 23  9  0  0  0  0
 14 39  1  0  0  0  0
 14 15  2  0  0  0  0
 15 40  1  0  0  0  0
 16 41  1  0  0  0  0
 16 15  1  0  0  0  0
 17 16  2  0  0  0  0
 18 19  1  0  0  0  0
 18 23  9  0  0  0  0
 19 20  2  0  0  0  0
 19 43  1  0  0  0  0
 20 44  1  0  0  0  0
 21 45  1  0  0  0  0
 21 20  1  0  0  0  0
 22 21  2  0  0  0  0
 23 53  1  0  0  0  0
 24 47  1  0  0  0  0
 24 48  1  0  0  0  0
 25 50  1  0  0  0  0
 25 52  1  0  0  0  0
 26  2  1  0  0  0  0
 27  2  1  0  0  0  0
 28  3  1  0  0  0  0
 30  5  1  0  0  0  0
 32  6  1  0  0  0  0
 35  8  1  0  0  0  0
 37  9  1  0  0  0  0
 42 17  1  0  0  0  0
 46 22  1  0  0  0  0
 49 24  1  0  0  0  0
 51 25  1  0  0  0  0
 53 54  2  0  0  0  0
 54 55  2  0  0  0  0
M  CHG  1  23   2
M  END
$$$$
