
 OpenBabel02052520073D

 54 60  0  0  0  0  0  0  0  0999 V2000
   -2.0669   -1.4998    0.1058 N   0  0  2  0  0  0  0  0  0  0  0  0
   -3.1520   -0.7149    0.7722 C   0  0  0  0  0  0  0  0  0  0  0  0
   -3.3319    0.6471    0.1125 C   0  0  0  0  0  0  0  0  0  0  0  0
   -2.0525    1.4072   -0.0340 N   0  0  1  0  0  0  0  0  0  0  0  0
   -1.5148    2.0119    1.2204 C   0  0  0  0  0  0  0  0  0  0  0  0
   -0.8253    1.0246    2.1869 C   0  0  0  0  0  0  0  0  0  0  0  0
   -0.1424   -0.1287    1.5144 N   0  0  2  0  0  0  0  0  0  0  0  0
   -1.3161   -2.3306    1.0805 C   0  0  0  0  0  0  0  0  0  0  0  0
   -0.5399   -1.4587    2.0915 C   0  0  0  0  0  0  0  0  0  0  0  0
    1.3382    0.0183    1.4028 C   0  0  1  0  0  0  0  0  0  0  0  0
    1.8603   -1.1416    0.5574 C   0  0  0  0  0  0  0  0  0  0  0  0
    1.6663    1.2934    0.6376 C   0  0  0  0  0  0  0  0  0  0  0  0
    0.9602    1.4391   -0.5043 N   0  0  0  0  0  0  0  0  0  0  0  0
    1.2508    2.4474   -1.3422 C   0  0  0  0  0  0  0  0  0  0  0  0
    2.2449    3.3811   -1.0523 C   0  0  0  0  0  0  0  0  0  0  0  0
    2.9516    3.2562    0.1443 C   0  0  0  0  0  0  0  0  0  0  0  0
    2.6639    2.1881    1.0029 C   0  0  0  0  0  0  0  0  0  0  0  0
    1.1155   -1.3951   -0.5408 N   0  0  0  0  0  0  0  0  0  0  0  0
    1.5095   -2.3415   -1.4093 C   0  0  0  0  0  0  0  0  0  0  0  0
    2.6666   -3.0906   -1.2054 C   0  0  0  0  0  0  0  0  0  0  0  0
    3.4321   -2.8410   -0.0653 C   0  0  0  0  0  0  0  0  0  0  0  0
    3.0246   -1.8467    0.8321 C   0  0  0  0  0  0  0  0  0  0  0  0
   -0.6115   -0.0678   -0.7309 Fe  0  2  0  0  0  0  0  0  0  0  0  0
   -2.6090   -2.3377   -0.9969 C   0  0  0  0  0  0  0  0  0  0  0  0
   -2.2680    2.4812   -1.0466 C   0  0  0  0  0  0  0  0  0  0  0  0
   -0.9881   -0.0948   -2.4700 O   0  0  0  0  0  0  0  0  0  0  0  0
   -2.9138   -0.6050    1.8287 H   0  0  0  0  0  0  0  0  0  0  0  0
   -4.0973   -1.2679    0.7245 H   0  0  0  0  0  0  0  0  0  0  0  0
   -4.0669    1.2429    0.6694 H   0  0  0  0  0  0  0  0  0  0  0  0
   -3.7205    0.5079   -0.8995 H   0  0  0  0  0  0  0  0  0  0  0  0
   -2.3141    2.5386    1.7585 H   0  0  0  0  0  0  0  0  0  0  0  0
   -0.7926    2.7637    0.9032 H   0  0  0  0  0  0  0  0  0  0  0  0
   -1.5565    0.6210    2.8858 H   0  0  0  0  0  0  0  0  0  0  0  0
   -0.1078    1.5878    2.7944 H   0  0  0  0  0  0  0  0  0  0  0  0
   -0.6263   -2.9477    0.5039 H   0  0  0  0  0  0  0  0  0  0  0  0
   -1.9963   -3.0063    1.6161 H   0  0  0  0  0  0  0  0  0  0  0  0
    0.3463   -2.0082    2.4183 H   0  0  0  0  0  0  0  0  0  0  0  0
   -1.1328   -1.2883    2.9913 H   0  0  0  0  0  0  0  0  0  0  0  0
    1.8199    0.0257    2.3883 H   0  0  0  0  0  0  0  0  0  0  0  0
    0.6687    2.4907   -2.2567 H   0  0  0  0  0  0  0  0  0  0  0  0
    2.4552    4.1837   -1.7509 H   0  0  0  0  0  0  0  0  0  0  0  0
    3.7247    3.9725    0.4048 H   0  0  0  0  0  0  0  0  0  0  0  0
    3.2101    2.0540    1.9311 H   0  0  0  0  0  0  0  0  0  0  0  0
    0.8733   -2.4878   -2.2761 H   0  0  0  0  0  0  0  0  0  0  0  0
    2.9563   -3.8489   -1.9247 H   0  0  0  0  0  0  0  0  0  0  0  0
    4.3368   -3.4101    0.1256 H   0  0  0  0  0  0  0  0  0  0  0  0
    3.6023   -1.6280    1.7246 H   0  0  0  0  0  0  0  0  0  0  0  0
   -3.1366   -1.7006   -1.7072 H   0  0  0  0  0  0  0  0  0  0  0  0
   -1.7804   -2.8179   -1.5207 H   0  0  0  0  0  0  0  0  0  0  0  0
   -3.2881   -3.1048   -0.6057 H   0  0  0  0  0  0  0  0  0  0  0  0
   -2.5134    2.0196   -2.0034 H   0  0  0  0  0  0  0  0  0  0  0  0
   -3.0777    3.1513   -0.7333 H   0  0  0  0  0  0  0  0  0  0  0  0
   -1.3534    3.0625   -1.1590 H   0  0  0  0  0  0  0  0  0  0  0  0
   -0.7223   -0.2149   -3.3942 H   0  0  0  0  0  0  0  0  0  0  0  0
  1 24  1  6  0  0  0
  1  2  1  0  0  0  0
  1  8  1  0  0  0  0
  1 23  9  0  0  0  0
  2 27  1  0  0  0  0
  3 29  1  0  0  0  0
  3  2  1  0  0  0  0
  4 25  1  6  0  0  0
  4  3  1  0  0  0  0
  4  5  1  0  0  0  0
  4 23  9  0  0  0  0
  5 31  1  0  0  0  0
  5  6  1  0  0  0  0
  6 34  1  0  0  0  0
  6 33  1  0  0  0  0
  7  9  1  1  0  0  0
  7  6  1  0  0  0  0
  7 23  9  0  0  0  0
  8 36  1  0  0  0  0
  8  9  1  0  0  0  0
  9 37  1  0  0  0  0
  9 38  1  0  0  0  0
 10  7  1  0  0  0  0
 10 39  1  1  0  0  0
 11 22  2  0  0  0  0
 11 10  1  0  0  0  0
 12 17  2  0  0  0  0
 12 10  1  0  0  0  0
 13 12  1  0  0  0  0
 13 23  9  0  0  0  0
 14 15  1  0  0  0  0
 14 13  2  0  0  0  0
 15 16  2  0  0  0  0
 16 42  1  0  0  0  0
 16 17  1  0  0  0  0
 17 43  1  0  0  0  0
 18 11  1  0  0  0  0
 18 23  9  0  0  0  0
 19 20  1  0  0  0  0
 19 18  2  0  0  0  0
 20 21  2  0  0  0  0
 21 46  1  0  0  0  0
 21 22  1  0  0  0  0
 22 47  1  0  0  0  0
 24 50  1  0  0  0  0
 25 52  1  0  0  0  0
 26 23  1  0  0  0  0
 28  2  1  0  0  0  0
 30  3  1  0  0  0  0
 32  5  1  0  0  0  0
 35  8  1  0  0  0  0
 40 14  1  0  0  0  0
 41 15  1  0  0  0  0
 44 19  1  0  0  0  0
 45 20  1  0  0  0  0
 48 24  1  0  0  0  0
 49 24  1  0  0  0  0
 51 25  1  0  0  0  0
 53 25  1  0  0  0  0
 54 26  1  0  0  0  0
M  CHG  1  23   2
M  END
$$$$
