
 OpenBabel02052520073D

 46 50  0  0  0  0  0  0  0  0999 V2000
   -2.3000   -0.2381   -0.5003 N   0  0  2  0  0  0  0  0  0  0  0  0
   -2.8445    0.3170    0.7856 C   0  0  0  0  0  0  0  0  0  0  0  0
   -2.0608    1.5558    1.1959 C   0  0  0  0  0  0  0  0  0  0  0  0
   -0.5726    1.3553    1.0964 N   0  0  1  0  0  0  0  0  0  0  0  0
    0.0586    0.5948    2.2247 C   0  0  0  0  0  0  0  0  0  0  0  0
   -0.2377   -0.8989    2.1599 C   0  0  0  0  0  0  0  0  0  0  0  0
   -0.2213   -1.4128    0.7359 N   0  0  2  0  0  0  0  0  0  0  0  0
   -2.3663   -1.7345   -0.5461 C   0  0  0  0  0  0  0  0  0  0  0  0
   -1.3832   -2.3516    0.4618 C   0  0  0  0  0  0  0  0  0  0  0  0
    1.0929   -2.0517    0.3753 C   0  0  0  0  0  0  0  0  0  0  0  0
    2.1326   -0.9941    0.1271 C   0  0  0  0  0  0  0  0  0  0  0  0
    1.6474    0.1564   -0.3950 N   0  0  0  0  0  0  0  0  0  0  0  0
    2.4804    1.1293   -0.8074 C   0  0  0  0  0  0  0  0  0  0  0  0
    3.8591    0.9973   -0.6770 C   0  0  0  0  0  0  0  0  0  0  0  0
    4.3748   -0.1676   -0.1052 C   0  0  0  0  0  0  0  0  0  0  0  0
    3.4988   -1.1784    0.3024 C   0  0  0  0  0  0  0  0  0  0  0  0
   -0.3243    0.1932   -0.5720 Fe  0  2  0  0  0  0  0  0  0  0  0  0
   -3.0136    0.3327   -1.6834 C   0  0  0  0  0  0  0  0  0  0  0  0
    0.0691    2.7066    1.0328 C   0  0  0  0  0  0  0  0  0  0  0  0
   -2.8048   -0.4585    1.5479 H   0  0  0  0  0  0  0  0  0  0  0  0
   -3.9006    0.5747    0.6546 H   0  0  0  0  0  0  0  0  0  0  0  0
   -2.3317    1.8707    2.2103 H   0  0  0  0  0  0  0  0  0  0  0  0
   -2.2977    2.3766    0.5165 H   0  0  0  0  0  0  0  0  0  0  0  0
   -0.2717    1.0068    3.1858 H   0  0  0  0  0  0  0  0  0  0  0  0
    1.1321    0.7653    2.1432 H   0  0  0  0  0  0  0  0  0  0  0  0
   -1.2121   -1.1170    2.5914 H   0  0  0  0  0  0  0  0  0  0  0  0
    0.4983   -1.4458    2.7570 H   0  0  0  0  0  0  0  0  0  0  0  0
   -2.0972   -2.0239   -1.5593 H   0  0  0  0  0  0  0  0  0  0  0  0
   -3.3934   -2.0614   -0.3462 H   0  0  0  0  0  0  0  0  0  0  0  0
   -1.0017   -3.2912    0.0598 H   0  0  0  0  0  0  0  0  0  0  0  0
   -1.8657   -2.5897    1.4106 H   0  0  0  0  0  0  0  0  0  0  0  0
    1.3912   -2.7698    1.1457 H   0  0  0  0  0  0  0  0  0  0  0  0
    2.0139    2.0045   -1.2432 H   0  0  0  0  0  0  0  0  0  0  0  0
    4.5086    1.7948   -1.0214 H   0  0  0  0  0  0  0  0  0  0  0  0
    5.4464   -0.2938    0.0153 H   0  0  0  0  0  0  0  0  0  0  0  0
    3.8708   -2.1016    0.7349 H   0  0  0  0  0  0  0  0  0  0  0  0
   -2.9832    1.4206   -1.6330 H   0  0  0  0  0  0  0  0  0  0  0  0
   -2.5115   -0.0079   -2.5892 H   0  0  0  0  0  0  0  0  0  0  0  0
   -4.0519   -0.0157   -1.6843 H   0  0  0  0  0  0  0  0  0  0  0  0
   -0.2878    3.2345    0.1503 H   0  0  0  0  0  0  0  0  0  0  0  0
   -0.1858    3.2706    1.9367 H   0  0  0  0  0  0  0  0  0  0  0  0
    1.1505    2.5937    0.9745 H   0  0  0  0  0  0  0  0  0  0  0  0
    0.9380   -2.5875   -0.5647 H   0  0  0  0  0  0  0  0  0  0  0  0
   -0.4202    1.6364   -1.5385 O   0  0  0  0  0  0  0  0  0  0  0  0
   -0.3453    1.4072   -2.4884 H   0  0  0  0  0  0  0  0  0  0  0  0
   -0.1610   -0.9153   -1.9290 F   0  0  0  0  0  0  0  0  0  0  0  0
  1 18  1  6  0  0  0
  1  2  1  0  0  0  0
  1 17  9  0  0  0  0
  2  3  1  0  0  0  0
  2 20  1  0  0  0  0
  3 22  1  0  0  0  0
  4 19  1  6  0  0  0
  4  3  1  0  0  0  0
  4  5  1  0  0  0  0
  4 17  9  0  0  0  0
  5 24  1  0  0  0  0
  6  5  1  0  0  0  0
  6 26  1  0  0  0  0
  6 27  1  0  0  0  0
  7 10  1  6  0  0  0
  7  6  1  0  0  0  0
  7 17  9  0  0  0  0
  8  1  1  0  0  0  0
  8 29  1  0  0  0  0
  8  9  1  0  0  0  0
  9  7  1  0  0  0  0
  9 31  1  0  0  0  0
 10 32  1  0  0  0  0
 11 16  2  0  0  0  0
 11 10  1  0  0  0  0
 12 11  1  0  0  0  0
 12 17  9  0  0  0  0
 13 14  1  0  0  0  0
 13 12  2  0  0  0  0
 14 15  2  0  0  0  0
 15 35  1  0  0  0  0
 15 16  1  0  0  0  0
 16 36  1  0  0  0  0
 18 37  1  0  0  0  0
 19 41  1  0  0  0  0
 21  2  1  0  0  0  0
 23  3  1  0  0  0  0
 25  5  1  0  0  0  0
 28  8  1  0  0  0  0
 30  9  1  0  0  0  0
 33 13  1  0  0  0  0
 34 14  1  0  0  0  0
 38 18  1  0  0  0  0
 39 18  1  0  0  0  0
 40 19  1  0  0  0  0
 42 19  1  0  0  0  0
 43 10  1  0  0  0  0
 44 17  1  0  0  0  0
 45 44  1  0  0  0  0
 46 17  1  0  0  0  0
M  CHG  1  17   2
M  END
$$$$
