
 OpenBabel02052520073D

 46 50  0  0  0  0  0  0  0  0999 V2000
   -2.3079   -0.2067   -0.4807 N   0  0  2  0  0  0  0  0  0  0  0  0
   -2.8339    0.4013    0.7893 C   0  0  0  0  0  0  0  0  0  0  0  0
   -2.0063    1.6191    1.1779 C   0  0  0  0  0  0  0  0  0  0  0  0
   -0.5274    1.3663    1.0900 N   0  0  1  0  0  0  0  0  0  0  0  0
    0.0620    0.5993    2.2288 C   0  0  0  0  0  0  0  0  0  0  0  0
   -0.2919   -0.8800    2.1598 C   0  0  0  0  0  0  0  0  0  0  0  0
   -0.2316   -1.4068    0.7379 N   0  0  2  0  0  0  0  0  0  0  0  0
   -2.4329   -1.7008   -0.4840 C   0  0  0  0  0  0  0  0  0  0  0  0
   -1.3895   -2.3506    0.4481 C   0  0  0  0  0  0  0  0  0  0  0  0
    1.0978   -2.0512    0.4421 C   0  0  0  0  0  0  0  0  0  0  0  0
    2.1334   -0.9958    0.1610 C   0  0  0  0  0  0  0  0  0  0  0  0
    1.6409    0.1171   -0.4338 N   0  0  0  0  0  0  0  0  0  0  0  0
    2.4591    1.0862   -0.8866 C   0  0  0  0  0  0  0  0  0  0  0  0
    3.8378    0.9840   -0.7286 C   0  0  0  0  0  0  0  0  0  0  0  0
    4.3625   -0.1389   -0.0836 C   0  0  0  0  0  0  0  0  0  0  0  0
    3.4994   -1.1442    0.3668 C   0  0  0  0  0  0  0  0  0  0  0  0
   -0.3316    0.1553   -0.5896 Fe  0  2  0  0  0  0  0  0  0  0  0  0
   -2.9888    0.3687   -1.6838 C   0  0  0  0  0  0  0  0  0  0  0  0
    0.1591    2.6900    0.9932 C   0  0  0  0  0  0  0  0  0  0  0  0
   -2.8318   -0.3601    1.5668 H   0  0  0  0  0  0  0  0  0  0  0  0
   -3.8779    0.6966    0.6422 H   0  0  0  0  0  0  0  0  0  0  0  0
   -2.2742    1.9639    2.1836 H   0  0  0  0  0  0  0  0  0  0  0  0
   -2.2138    2.4334    0.4810 H   0  0  0  0  0  0  0  0  0  0  0  0
   -0.2630    1.0216    3.1877 H   0  0  0  0  0  0  0  0  0  0  0  0
    1.1431    0.7282    2.1632 H   0  0  0  0  0  0  0  0  0  0  0  0
   -1.2930   -1.0561    2.5448 H   0  0  0  0  0  0  0  0  0  0  0  0
    0.3907   -1.4573    2.7905 H   0  0  0  0  0  0  0  0  0  0  0  0
   -2.2627   -2.0232   -1.5083 H   0  0  0  0  0  0  0  0  0  0  0  0
   -3.4539   -1.9750   -0.1955 H   0  0  0  0  0  0  0  0  0  0  0  0
   -1.0004   -3.2473   -0.0337 H   0  0  0  0  0  0  0  0  0  0  0  0
   -1.8216   -2.6620    1.4008 H   0  0  0  0  0  0  0  0  0  0  0  0
    1.3862   -2.7245    1.2551 H   0  0  0  0  0  0  0  0  0  0  0  0
    1.9785    1.9265   -1.3743 H   0  0  0  0  0  0  0  0  0  0  0  0
    4.4805    1.7723   -1.1054 H   0  0  0  0  0  0  0  0  0  0  0  0
    5.4340   -0.2375    0.0612 H   0  0  0  0  0  0  0  0  0  0  0  0
    3.8826   -2.0344    0.8552 H   0  0  0  0  0  0  0  0  0  0  0  0
   -2.9322    1.4558   -1.6432 H   0  0  0  0  0  0  0  0  0  0  0  0
   -2.4743    0.0140   -2.5760 H   0  0  0  0  0  0  0  0  0  0  0  0
   -4.0344    0.0433   -1.6912 H   0  0  0  0  0  0  0  0  0  0  0  0
   -0.1623    3.1925    0.0823 H   0  0  0  0  0  0  0  0  0  0  0  0
   -0.0909    3.3016    1.8673 H   0  0  0  0  0  0  0  0  0  0  0  0
    1.2377    2.5400    0.9620 H   0  0  0  0  0  0  0  0  0  0  0  0
    0.9682   -2.6388   -0.4701 H   0  0  0  0  0  0  0  0  0  0  0  0
   -0.2426   -1.0118   -1.9387 O   0  0  0  0  0  0  0  0  0  0  0  0
    0.5122   -0.8093   -2.5231 H   0  0  0  0  0  0  0  0  0  0  0  0
   -0.4322    1.5756   -1.5423 F   0  0  0  0  0  0  0  0  0  0  0  0
  1 18  1  6  0  0  0
  1  2  1  0  0  0  0
  1 17  9  0  0  0  0
  2  3  1  0  0  0  0
  2 20  1  0  0  0  0
  3 22  1  0  0  0  0
  4 19  1  6  0  0  0
  4  3  1  0  0  0  0
  4  5  1  0  0  0  0
  4 17  9  0  0  0  0
  5 24  1  0  0  0  0
  6  5  1  0  0  0  0
  6 26  1  0  0  0  0
  6 27  1  0  0  0  0
  7 10  1  6  0  0  0
  7  6  1  0  0  0  0
  7 17  9  0  0  0  0
  8  1  1  0  0  0  0
  8 29  1  0  0  0  0
  8  9  1  0  0  0  0
  9  7  1  0  0  0  0
  9 31  1  0  0  0  0
 10 32  1  0  0  0  0
 11 16  2  0  0  0  0
 11 10  1  0  0  0  0
 12 11  1  0  0  0  0
 12 17  9  0  0  0  0
 13 14  1  0  0  0  0
 13 12  2  0  0  0  0
 14 15  2  0  0  0  0
 15 35  1  0  0  0  0
 15 16  1  0  0  0  0
 16 36  1  0  0  0  0
 18 37  1  0  0  0  0
 19 41  1  0  0  0  0
 21  2  1  0  0  0  0
 23  3  1  0  0  0  0
 25  5  1  0  0  0  0
 28  8  1  0  0  0  0
 30  9  1  0  0  0  0
 33 13  1  0  0  0  0
 34 14  1  0  0  0  0
 38 18  1  0  0  0  0
 39 18  1  0  0  0  0
 40 19  1  0  0  0  0
 42 19  1  0  0  0  0
 43 10  1  0  0  0  0
 44 17  1  0  0  0  0
 45 44  1  0  0  0  0
 46 17  1  0  0  0  0
M  CHG  1  17   2
M  END
$$$$
