
 OpenBabel02052520073D

 46 50  0  0  0  0  0  0  0  0999 V2000
   -0.0050   -0.0506   -0.7719 Fe  0  3  0  0  0  0  0  0  0  0  0  0
   -2.9156   -1.1422   -1.0216 C   0  0  0  0  0  0  0  0  0  0  0  0
   -2.3569   -1.9158   -1.5372 H   0  0  0  0  0  0  0  0  0  0  0  0
   -2.1654   -0.1585   -0.4973 N   0  0  0  0  0  0  0  0  0  0  0  0
   -0.4988    1.3877    0.9977 N   0  0  2  0  0  0  0  0  0  0  0  0
   -4.3019   -1.1507   -0.9032 C   0  0  0  0  0  0  0  0  0  0  0  0
    0.5007   -1.3197    1.0895 N   0  0  1  0  0  0  0  0  0  0  0  0
    2.1527    0.1321   -0.5085 N   0  0  0  0  0  0  0  0  0  0  0  0
   -4.9190   -0.1027   -0.2176 C   0  0  0  0  0  0  0  0  0  0  0  0
   -4.1340    0.9189    0.3205 C   0  0  0  0  0  0  0  0  0  0  0  0
   -4.5834    1.7477    0.8581 H   0  0  0  0  0  0  0  0  0  0  0  0
   -2.7524    0.8637    0.1522 C   0  0  0  0  0  0  0  0  0  0  0  0
   -1.8134    1.9498    0.6224 C   0  0  0  0  0  0  0  0  0  0  0  0
   -1.6377    2.6293   -0.2183 H   0  0  0  0  0  0  0  0  0  0  0  0
   -2.2575    2.5290    1.4447 H   0  0  0  0  0  0  0  0  0  0  0  0
    0.5091    2.4649    1.0656 C   0  0  0  0  0  0  0  0  0  0  0  0
    0.6155    2.8921    0.0674 H   0  0  0  0  0  0  0  0  0  0  0  0
    1.4724    2.0509    1.3654 H   0  0  0  0  0  0  0  0  0  0  0  0
   -0.5659    0.5963    2.2473 C   0  0  0  0  0  0  0  0  0  0  0  0
   -1.5368    0.0952    2.2795 H   0  0  0  0  0  0  0  0  0  0  0  0
    0.5537   -0.4428    2.2845 C   0  0  0  0  0  0  0  0  0  0  0  0
    1.5237    0.0605    2.2911 H   0  0  0  0  0  0  0  0  0  0  0  0
   -0.4929   -2.4042    1.2374 C   0  0  0  0  0  0  0  0  0  0  0  0
   -0.5830   -2.9197    0.2800 H   0  0  0  0  0  0  0  0  0  0  0  0
   -1.4644   -1.9787    1.4924 H   0  0  0  0  0  0  0  0  0  0  0  0
    1.8297   -1.8878    0.7688 C   0  0  0  0  0  0  0  0  0  0  0  0
    1.6710   -2.6316   -0.0190 H   0  0  0  0  0  0  0  0  0  0  0  0
    2.2735   -2.3914    1.6393 H   0  0  0  0  0  0  0  0  0  0  0  0
    2.7536   -0.8248    0.2214 C   0  0  0  0  0  0  0  0  0  0  0  0
    4.1354   -0.8403    0.3973 C   0  0  0  0  0  0  0  0  0  0  0  0
    4.5985   -1.6139    1.0017 H   0  0  0  0  0  0  0  0  0  0  0  0
    4.9032    0.1486   -0.2213 C   0  0  0  0  0  0  0  0  0  0  0  0
    4.2703    1.1248   -0.9935 C   0  0  0  0  0  0  0  0  0  0  0  0
    2.8844    1.0825   -1.1120 C   0  0  0  0  0  0  0  0  0  0  0  0
    2.3144    1.7983   -1.6942 H   0  0  0  0  0  0  0  0  0  0  0  0
   -5.9983   -0.0803   -0.1013 H   0  0  0  0  0  0  0  0  0  0  0  0
   -4.8794   -1.9596   -1.3374 H   0  0  0  0  0  0  0  0  0  0  0  0
    5.9823    0.1560   -0.1011 H   0  0  0  0  0  0  0  0  0  0  0  0
    4.8353    1.9042   -1.4931 H   0  0  0  0  0  0  0  0  0  0  0  0
   -0.1951   -3.1136    2.0222 H   0  0  0  0  0  0  0  0  0  0  0  0
    0.2154    3.2449    1.7822 H   0  0  0  0  0  0  0  0  0  0  0  0
   -0.5061    1.2471    3.1314 H   0  0  0  0  0  0  0  0  0  0  0  0
    0.4893   -1.0359    3.2076 H   0  0  0  0  0  0  0  0  0  0  0  0
    0.0251   -1.6257   -1.7410 O   0  0  0  0  0  0  0  0  0  0  0  0
    0.1662   -1.5422   -2.6987 H   0  0  0  0  0  0  0  0  0  0  0  0
    0.0199    1.4151   -1.8137 F   0  0  0  0  0  0  0  0  0  0  0  0
  2  6  2  0  0  0  0
  2  4  1  0  0  0  0
  3  2  1  0  0  0  0
  4 12  2  0  0  0  0
  4  1  9  0  0  0  0
  5 16  1  1  0  0  0
  5 19  1  0  0  0  0
  5  1  9  0  0  0  0
  6  9  1  0  0  0  0
  7 23  1  1  0  0  0
  7 21  1  0  0  0  0
  7  1  9  0  0  0  0
  8 29  1  0  0  0  0
  8  1  9  0  0  0  0
  9 36  1  0  0  0  0
  9 10  2  0  0  0  0
 10 11  1  0  0  0  0
 12 10  1  0  0  0  0
 12 13  1  0  0  0  0
 13  5  1  0  0  0  0
 13 15  1  0  0  0  0
 14 13  1  0  0  0  0
 16 18  1  0  0  0  0
 16 41  1  0  0  0  0
 17 16  1  0  0  0  0
 19 20  1  0  0  0  0
 19 21  1  0  0  0  0
 19 42  1  0  0  0  0
 21 22  1  0  0  0  0
 21 43  1  0  0  0  0
 23 25  1  0  0  0  0
 23 40  1  0  0  0  0
 24 23  1  0  0  0  0
 26  7  1  0  0  0  0
 26 28  1  0  0  0  0
 27 26  1  0  0  0  0
 29 30  2  0  0  0  0
 29 26  1  0  0  0  0
 30 31  1  0  0  0  0
 32 38  1  0  0  0  0
 32 30  1  0  0  0  0
 33 32  2  0  0  0  0
 34 33  1  0  0  0  0
 34  8  2  0  0  0  0
 35 34  1  0  0  0  0
 37  6  1  0  0  0  0
 39 33  1  0  0  0  0
 44  1  1  0  0  0  0
 45 44  1  0  0  0  0
 46  1  1  0  0  0  0
M  CHG  1   1   1
M  END
$$$$
