
 OpenBabel02052520073D

 48 52  0  0  0  0  0  0  0  0999 V2000
   -1.6126   -1.6499   -0.3774 N   0  0  2  0  0  0  0  0  0  0  0  0
   -1.7287   -2.2784    0.9808 C   0  0  0  0  0  0  0  0  0  0  0  0
   -1.4634   -1.2397    2.0588 C   0  0  0  0  0  0  0  0  0  0  0  0
   -0.2352   -0.4248    1.7775 N   0  0  1  0  0  0  0  0  0  0  0  0
    1.0560   -1.1223    2.0703 C   0  0  0  0  0  0  0  0  0  0  0  0
    1.4142   -2.1627    1.0139 C   0  0  0  0  0  0  0  0  0  0  0  0
    1.0655   -1.7032   -0.3872 N   0  0  2  0  0  0  0  0  0  0  0  0
   -1.0655   -2.6154   -1.3836 C   0  0  0  0  0  0  0  0  0  0  0  0
    0.4490   -2.8272   -1.1947 C   0  0  0  0  0  0  0  0  0  0  0  0
    2.2639   -1.1257   -1.0812 C   0  0  0  0  0  0  0  0  0  0  0  0
    2.5351    0.2599   -0.5646 C   0  0  0  0  0  0  0  0  0  0  0  0
    1.4295    0.9539   -0.1965 N   0  0  0  0  0  0  0  0  0  0  0  0
    1.5425    2.2483    0.1623 C   0  0  0  0  0  0  0  0  0  0  0  0
    2.7711    2.8974    0.1892 C   0  0  0  0  0  0  0  0  0  0  0  0
    3.9187    2.1821   -0.1609 C   0  0  0  0  0  0  0  0  0  0  0  0
    3.7972    0.8440   -0.5426 C   0  0  0  0  0  0  0  0  0  0  0  0
   -0.2273   -0.1560   -0.2991 Fe  0  2  0  0  0  0  0  0  0  0  0  0
   -2.9459   -1.1694   -0.8434 C   0  0  0  0  0  0  0  0  0  0  0  0
   -0.2984    0.7989    2.6285 C   0  0  0  0  0  0  0  0  0  0  0  0
   -1.0331   -3.1124    1.0429 H   0  0  0  0  0  0  0  0  0  0  0  0
   -2.7310   -2.7009    1.1093 H   0  0  0  0  0  0  0  0  0  0  0  0
   -1.3932   -1.7117    3.0467 H   0  0  0  0  0  0  0  0  0  0  0  0
   -2.2958   -0.5328    2.0902 H   0  0  0  0  0  0  0  0  0  0  0  0
    1.0231   -1.5922    3.0615 H   0  0  0  0  0  0  0  0  0  0  0  0
    1.8234   -0.3479    2.1016 H   0  0  0  0  0  0  0  0  0  0  0  0
    0.8958   -3.0987    1.2057 H   0  0  0  0  0  0  0  0  0  0  0  0
    2.4838   -2.3871    1.0707 H   0  0  0  0  0  0  0  0  0  0  0  0
   -1.2493   -2.1758   -2.3611 H   0  0  0  0  0  0  0  0  0  0  0  0
   -1.6128   -3.5627   -1.3151 H   0  0  0  0  0  0  0  0  0  0  0  0
    0.9216   -2.8563   -2.1762 H   0  0  0  0  0  0  0  0  0  0  0  0
    0.6765   -3.7759   -0.7043 H   0  0  0  0  0  0  0  0  0  0  0  0
    3.1296   -1.7886   -0.9819 H   0  0  0  0  0  0  0  0  0  0  0  0
    0.6235    2.7540    0.4294 H   0  0  0  0  0  0  0  0  0  0  0  0
    2.8220    3.9411    0.4799 H   0  0  0  0  0  0  0  0  0  0  0  0
    4.8936    2.6593   -0.1416 H   0  0  0  0  0  0  0  0  0  0  0  0
    4.6673    0.2630   -0.8307 H   0  0  0  0  0  0  0  0  0  0  0  0
   -3.3957   -0.5442   -0.0714 H   0  0  0  0  0  0  0  0  0  0  0  0
   -2.8071   -0.5869   -1.7539 H   0  0  0  0  0  0  0  0  0  0  0  0
   -3.6011   -2.0243   -1.0436 H   0  0  0  0  0  0  0  0  0  0  0  0
   -1.1959    1.3669    2.3874 H   0  0  0  0  0  0  0  0  0  0  0  0
   -0.3207    0.5202    3.6884 H   0  0  0  0  0  0  0  0  0  0  0  0
    0.5788    1.4183    2.4462 H   0  0  0  0  0  0  0  0  0  0  0  0
    2.0053   -1.0361   -2.1392 H   0  0  0  0  0  0  0  0  0  0  0  0
   -0.2145   -0.1067   -2.0850 O   0  0  0  0  0  0  0  0  0  0  0  0
   -0.2980    0.8050   -2.4174 H   0  0  0  0  0  0  0  0  0  0  0  0
   -1.4111    1.2997   -0.1697 N   0  0  0  0  0  0  0  0  0  0  0  0
   -2.1922    2.1915   -0.2851 C   0  0  0  0  0  0  0  0  0  0  0  0
   -3.2475    3.4000   -0.4112 S   0  0  0  0  0  0  0  0  0  0  0  0
  1 18  1  6  0  0  0
  1  2  1  0  0  0  0
  1 17  9  0  0  0  0
  2 20  1  0  0  0  0
  2 21  1  0  0  0  0
  2  3  1  0  0  0  0
  3 23  1  0  0  0  0
  3 22  1  0  0  0  0
  4  3  1  0  0  0  0
  4  5  1  0  0  0  0
  4 19  1  1  0  0  0
  4 17  9  0  0  0  0
  5 25  1  0  0  0  0
  5 24  1  0  0  0  0
  6 27  1  0  0  0  0
  6 26  1  0  0  0  0
  6  5  1  0  0  0  0
  7  9  1  6  0  0  0
  7  6  1  0  0  0  0
  7 17  9  0  0  0  0
  8 29  1  0  0  0  0
  8  9  1  0  0  0  0
  8  1  1  0  0  0  0
  9 31  1  0  0  0  0
 10 32  1  0  0  0  0
 10 11  1  0  0  0  0
 10  7  1  0  0  0  0
 11 16  1  0  0  0  0
 11 12  2  0  0  0  0
 12 13  1  0  0  0  0
 12 17  9  0  0  0  0
 13 14  2  0  0  0  0
 13 33  1  0  0  0  0
 14 34  1  0  0  0  0
 15 35  1  0  0  0  0
 15 14  1  0  0  0  0
 16 15  2  0  0  0  0
 17 46  1  0  0  0  0
 18 37  1  0  0  0  0
 19 41  1  0  0  0  0
 28  8  1  0  0  0  0
 30  9  1  0  0  0  0
 36 16  1  0  0  0  0
 38 18  1  0  0  0  0
 39 18  1  0  0  0  0
 40 19  1  0  0  0  0
 42 19  1  0  0  0  0
 43 10  1  0  0  0  0
 44 17  1  0  0  0  0
 45 44  1  0  0  0  0
 47 46  2  0  0  0  0
 48 47  2  0  0  0  0
M  CHG  1  17   2
M  END
$$$$
