
 OpenBabel02072512503D

 55 60  0  0  0  0  0  0  0  0999 V2000
    1.9836   -1.3130   -0.8306 N   0  0  2  0  0  0  0  0  0  0  0  0
    2.8711   -0.4049   -1.6215 C   0  0  0  0  0  0  0  0  0  0  0  0
    3.0966    0.9179   -0.8980 C   0  0  0  0  0  0  0  0  0  0  0  0
    1.8306    1.5761   -0.4515 N   0  0  1  0  0  0  0  0  0  0  0  0
    1.0292    2.2245   -1.5319 C   0  0  0  0  0  0  0  0  0  0  0  0
    0.2297    1.2594   -2.4316 C   0  0  0  0  0  0  0  0  0  0  0  0
   -0.2465    0.0179   -1.7382 N   0  0  2  0  0  0  0  0  0  0  0  0
    1.1052   -2.1229   -1.7125 C   0  0  0  0  0  0  0  0  0  0  0  0
    0.1048   -1.2381   -2.4864 C   0  0  0  0  0  0  0  0  0  0  0  0
   -1.6871    0.0551   -1.3479 C   0  0  1  0  0  0  0  0  0  0  0  0
   -1.9812   -1.1946   -0.5214 C   0  0  0  0  0  0  0  0  0  0  0  0
   -1.9372    1.2478   -0.4347 C   0  0  0  0  0  0  0  0  0  0  0  0
   -1.0416    1.3614    0.5701 N   0  0  0  0  0  0  0  0  0  0  0  0
   -1.2308    2.2855    1.5261 C   0  0  0  0  0  0  0  0  0  0  0  0
   -2.3121    3.1650    1.4970 C   0  0  0  0  0  0  0  0  0  0  0  0
   -3.2188    3.0754    0.4402 C   0  0  0  0  0  0  0  0  0  0  0  0
   -3.0339    2.0934   -0.5406 C   0  0  0  0  0  0  0  0  0  0  0  0
   -1.0327   -1.4767    0.3987 N   0  0  0  0  0  0  0  0  0  0  0  0
   -1.2126   -2.5050    1.2446 C   0  0  0  0  0  0  0  0  0  0  0  0
   -2.3486   -3.3102    1.1937 C   0  0  0  0  0  0  0  0  0  0  0  0
   -3.3239   -3.0306    0.2352 C   0  0  0  0  0  0  0  0  0  0  0  0
   -3.1399   -1.9511   -0.6371 C   0  0  0  0  0  0  0  0  0  0  0  0
    0.6173   -0.0478    0.3692 Fe  0  2  0  0  0  0  0  0  0  0  0  0
    2.7809   -2.1934    0.0629 C   0  0  0  0  0  0  0  0  0  0  0  0
    2.1793    2.6054    0.5690 C   0  0  0  0  0  0  0  0  0  0  0  0
    2.4283   -0.2387   -2.6016 H   0  0  0  0  0  0  0  0  0  0  0  0
    3.8390   -0.8880   -1.7994 H   0  0  0  0  0  0  0  0  0  0  0  0
    3.6784    1.5996   -1.5325 H   0  0  0  0  0  0  0  0  0  0  0  0
    3.6811    0.7357    0.0076 H   0  0  0  0  0  0  0  0  0  0  0  0
    1.6790    2.8452   -2.1634 H   0  0  0  0  0  0  0  0  0  0  0  0
    0.3368    2.8971   -1.0261 H   0  0  0  0  0  0  0  0  0  0  0  0
    0.8382    0.9577   -3.2828 H   0  0  0  0  0  0  0  0  0  0  0  0
   -0.6210    1.8090   -2.8502 H   0  0  0  0  0  0  0  0  0  0  0  0
    0.5718   -2.8234   -1.0689 H   0  0  0  0  0  0  0  0  0  0  0  0
    1.7048   -2.7122   -2.4191 H   0  0  0  0  0  0  0  0  0  0  0  0
   -0.7966   -1.8228   -2.6855 H   0  0  0  0  0  0  0  0  0  0  0  0
    0.5043   -0.9649   -3.4641 H   0  0  0  0  0  0  0  0  0  0  0  0
   -2.3413    0.0996   -2.2273 H   0  0  0  0  0  0  0  0  0  0  0  0
   -0.4959    2.3049    2.3241 H   0  0  0  0  0  0  0  0  0  0  0  0
   -2.4355    3.8987    2.2861 H   0  0  0  0  0  0  0  0  0  0  0  0
   -4.0661    3.7518    0.3824 H   0  0  0  0  0  0  0  0  0  0  0  0
   -3.7337    1.9864   -1.3634 H   0  0  0  0  0  0  0  0  0  0  0  0
   -0.4224   -2.6714    1.9695 H   0  0  0  0  0  0  0  0  0  0  0  0
   -2.4618   -4.1336    1.8906 H   0  0  0  0  0  0  0  0  0  0  0  0
   -4.2189   -3.6412    0.1661 H   0  0  0  0  0  0  0  0  0  0  0  0
   -3.8839   -1.7065   -1.3886 H   0  0  0  0  0  0  0  0  0  0  0  0
    3.4318   -1.5802    0.6878 H   0  0  0  0  0  0  0  0  0  0  0  0
    2.1052   -2.7528    0.7133 H   0  0  0  0  0  0  0  0  0  0  0  0
    3.3899   -2.8957   -0.5192 H   0  0  0  0  0  0  0  0  0  0  0  0
    2.6782    2.1233    1.4103 H   0  0  0  0  0  0  0  0  0  0  0  0
    2.8392    3.3696    0.1404 H   0  0  0  0  0  0  0  0  0  0  0  0
    1.2692    3.0863    0.9269 H   0  0  0  0  0  0  0  0  0  0  0  0
    1.3011   -0.2021    2.0758 N   0  0  0  0  0  0  0  0  0  0  0  0
    1.7292   -0.4058    3.1932 N   0  3  0  0  0  0  0  0  0  0  0  0
    2.1371   -0.5953    4.2478 N   0  5  0  0  0  0  0  0  0  0  0  0
  1 24  1  1  0  0  0
  1 23  9  0  0  0  0
  2  3  1  0  0  0  0
  2  1  1  0  0  0  0
  3  4  1  0  0  0  0
  3 29  1  0  0  0  0
  4 25  1  1  0  0  0
  4 23  9  0  0  0  0
  5 31  1  0  0  0  0
  5  4  1  0  0  0  0
  6  7  1  0  0  0  0
  6  5  1  0  0  0  0
  7  9  1  6  0  0  0
  7 10  1  0  0  0  0
  8 34  1  0  0  0  0
  8  1  1  0  0  0  0
  9  8  1  0  0  0  0
 10 38  1  6  0  0  0
 10 11  1  0  0  0  0
 10 12  1  0  0  0  0
 11 18  2  0  0  0  0
 12 13  2  0  0  0  0
 13 14  1  0  0  0  0
 13 23  9  0  0  0  0
 14 39  1  0  0  0  0
 15 14  2  0  0  0  0
 15 40  1  0  0  0  0
 16 15  1  0  0  0  0
 17 12  1  0  0  0  0
 17 16  2  0  0  0  0
 18 19  1  0  0  0  0
 18 23  9  0  0  0  0
 19 43  1  0  0  0  0
 20 19  2  0  0  0  0
 20 44  1  0  0  0  0
 21 20  1  0  0  0  0
 22 11  1  0  0  0  0
 22 21  2  0  0  0  0
 23 53  1  0  0  0  0
 24 47  1  0  0  0  0
 24 48  1  0  0  0  0
 25 52  1  0  0  0  0
 25 50  1  0  0  0  0
 26  2  1  0  0  0  0
 27  2  1  0  0  0  0
 28  3  1  0  0  0  0
 30  5  1  0  0  0  0
 32  6  1  0  0  0  0
 33  6  1  0  0  0  0
 35  8  1  0  0  0  0
 36  9  1  0  0  0  0
 37  9  1  0  0  0  0
 41 16  1  0  0  0  0
 42 17  1  0  0  0  0
 45 21  1  0  0  0  0
 46 22  1  0  0  0  0
 49 24  1  0  0  0  0
 51 25  1  0  0  0  0
 53 54  2  0  0  0  0
 54 55  2  0  0  0  0
M  CHG  3  23   2  54   1  55  -1
M  END
$$$$
