
 OpenBabel02052520073D

 46 50  0  0  0  0  0  0  0  0999 V2000
    2.4955    0.3505   -0.2443 N   0  0  2  0  0  0  0  0  0  0  0  0
    2.8939   -0.0042    1.1553 C   0  0  0  0  0  0  0  0  0  0  0  0
    1.9703   -1.0596    1.7386 C   0  0  0  0  0  0  0  0  0  0  0  0
    0.5102   -0.7517    1.5366 N   0  0  1  0  0  0  0  0  0  0  0  0
   -0.0118    0.4692    2.2518 C   0  0  0  0  0  0  0  0  0  0  0  0
    0.3177    1.7899    1.5670 C   0  0  0  0  0  0  0  0  0  0  0  0
    0.1137    1.7181    0.0831 N   0  0  2  0  0  0  0  0  0  0  0  0
    2.5579    1.8243   -0.5105 C   0  0  0  0  0  0  0  0  0  0  0  0
    1.1619    2.4621   -0.6717 C   0  0  0  0  0  0  0  0  0  0  0  0
   -1.2503    2.1435   -0.3443 C   0  0  0  0  0  0  0  0  0  0  0  0
   -2.2761    1.0509   -0.1601 C   0  0  0  0  0  0  0  0  0  0  0  0
   -1.8136   -0.2084   -0.2906 N   0  0  0  0  0  0  0  0  0  0  0  0
   -2.6737   -1.2460   -0.3217 C   0  0  0  0  0  0  0  0  0  0  0  0
   -4.0448   -1.0588   -0.1835 C   0  0  0  0  0  0  0  0  0  0  0  0
   -4.5302    0.2391   -0.0037 C   0  0  0  0  0  0  0  0  0  0  0  0
   -3.6334    1.3108    0.0056 C   0  0  0  0  0  0  0  0  0  0  0  0
    0.3272   -0.3506   -0.5493 Fe  0  2  0  0  0  0  0  0  0  0  0  0
    3.2872   -0.4240   -1.2440 C   0  0  0  0  0  0  0  0  0  0  0  0
   -0.2699   -1.9293    2.0362 C   0  0  0  0  0  0  0  0  0  0  0  0
    2.8972    0.8924    1.7725 H   0  0  0  0  0  0  0  0  0  0  0  0
    3.9198   -0.3895    1.1635 H   0  0  0  0  0  0  0  0  0  0  0  0
    2.1634   -1.1856    2.8114 H   0  0  0  0  0  0  0  0  0  0  0  0
    2.1407   -2.0212    1.2506 H   0  0  0  0  0  0  0  0  0  0  0  0
    0.3656    0.4684    3.2819 H   0  0  0  0  0  0  0  0  0  0  0  0
   -1.0940    0.3461    2.2981 H   0  0  0  0  0  0  0  0  0  0  0  0
    1.3435    2.0959    1.7542 H   0  0  0  0  0  0  0  0  0  0  0  0
   -0.3181    2.5753    1.9904 H   0  0  0  0  0  0  0  0  0  0  0  0
    3.1103    1.9966   -1.4364 H   0  0  0  0  0  0  0  0  0  0  0  0
    3.1301    2.3051    0.2868 H   0  0  0  0  0  0  0  0  0  0  0  0
    0.8681    2.4323   -1.7199 H   0  0  0  0  0  0  0  0  0  0  0  0
    1.1821    3.5109   -0.3498 H   0  0  0  0  0  0  0  0  0  0  0  0
   -1.5404    3.0654    0.1721 H   0  0  0  0  0  0  0  0  0  0  0  0
   -2.2357   -2.2281   -0.4604 H   0  0  0  0  0  0  0  0  0  0  0  0
   -4.7116   -1.9137   -0.2151 H   0  0  0  0  0  0  0  0  0  0  0  0
   -5.5943    0.4171    0.1181 H   0  0  0  0  0  0  0  0  0  0  0  0
   -3.9830    2.3320    0.1206 H   0  0  0  0  0  0  0  0  0  0  0  0
    3.2273   -1.4872   -1.0109 H   0  0  0  0  0  0  0  0  0  0  0  0
    2.8662   -0.2544   -2.2352 H   0  0  0  0  0  0  0  0  0  0  0  0
    4.3349   -0.1016   -1.2237 H   0  0  0  0  0  0  0  0  0  0  0  0
    0.0847   -2.8398    1.5576 H   0  0  0  0  0  0  0  0  0  0  0  0
   -0.1342   -2.0094    3.1211 H   0  0  0  0  0  0  0  0  0  0  0  0
   -1.3259   -1.7868    1.8169 H   0  0  0  0  0  0  0  0  0  0  0  0
   -1.1977    2.3642   -1.4148 H   0  0  0  0  0  0  0  0  0  0  0  0
    0.3135    0.2422   -2.2037 O   0  0  0  0  0  0  0  0  0  0  0  0
    0.1633   -0.4349   -2.8948 H   0  0  0  0  0  0  0  0  0  0  0  0
    0.5406   -2.4788   -1.0663 Cl  0  0  0  0  0  0  0  0  0  0  0  0
  1 18  1  6  0  0  0
  1  2  1  0  0  0  0
  1 17  9  0  0  0  0
  2 21  1  0  0  0  0
  2  3  1  0  0  0  0
  2 20  1  0  0  0  0
  3 22  1  0  0  0  0
  4  3  1  0  0  0  0
  4 19  1  1  0  0  0
  4  5  1  0  0  0  0
  4 17  9  0  0  0  0
  5 25  1  0  0  0  0
  5 24  1  0  0  0  0
  6 26  1  0  0  0  0
  6 27  1  0  0  0  0
  6  5  1  0  0  0  0
  7  9  1  6  0  0  0
  7  6  1  0  0  0  0
  7 17  9  0  0  0  0
  8  1  1  0  0  0  0
  8 29  1  0  0  0  0
  9  8  1  0  0  0  0
  9 31  1  0  0  0  0
 10 11  1  0  0  0  0
 10  7  1  0  0  0  0
 10 32  1  0  0  0  0
 11 16  2  0  0  0  0
 12 11  1  0  0  0  0
 12 17  9  0  0  0  0
 13 12  2  0  0  0  0
 13 14  1  0  0  0  0
 14 15  2  0  0  0  0
 15 16  1  0  0  0  0
 15 35  1  0  0  0  0
 16 36  1  0  0  0  0
 18 39  1  0  0  0  0
 18 37  1  0  0  0  0
 19 41  1  0  0  0  0
 23  3  1  0  0  0  0
 28  8  1  0  0  0  0
 30  9  1  0  0  0  0
 33 13  1  0  0  0  0
 34 14  1  0  0  0  0
 38 18  1  0  0  0  0
 40 19  1  0  0  0  0
 42 19  1  0  0  0  0
 43 10  1  0  0  0  0
 44 17  1  0  0  0  0
 45 44  1  0  0  0  0
 46 17  1  0  0  0  0
M  CHG  1  17   2
M  END
$$$$
