
 OpenBabel02052520073D

 46 50  0  0  0  0  0  0  0  0999 V2000
   -2.3290   -0.2786   -0.2223 N   0  0  2  0  0  0  0  0  0  0  0  0
   -2.8331    0.9230    0.5369 C   0  0  0  0  0  0  0  0  0  0  0  0
   -1.9651    2.1350    0.2504 C   0  0  0  0  0  0  0  0  0  0  0  0
   -0.5005    1.8269    0.3683 N   0  0  1  0  0  0  0  0  0  0  0  0
    0.0200    1.6761    1.7639 C   0  0  0  0  0  0  0  0  0  0  0  0
   -0.3747    0.3450    2.3844 C   0  0  0  0  0  0  0  0  0  0  0  0
   -0.2274   -0.7920    1.3958 N   0  0  2  0  0  0  0  0  0  0  0  0
   -2.5110   -1.5420    0.5738 C   0  0  0  0  0  0  0  0  0  0  0  0
   -1.3439   -1.7988    1.5604 C   0  0  0  0  0  0  0  0  0  0  0  0
    1.1313   -1.4347    1.5096 C   0  0  0  0  0  0  0  0  0  0  0  0
    2.1466   -0.6570    0.7191 C   0  0  0  0  0  0  0  0  0  0  0  0
    1.6490    0.0094   -0.3489 N   0  0  0  0  0  0  0  0  0  0  0  0
    2.4738    0.6008   -1.2346 C   0  0  0  0  0  0  0  0  0  0  0  0
    3.8526    0.5756   -1.0596 C   0  0  0  0  0  0  0  0  0  0  0  0
    4.3807   -0.0730    0.0591 C   0  0  0  0  0  0  0  0  0  0  0  0
    3.5151   -0.6978    0.9609 C   0  0  0  0  0  0  0  0  0  0  0  0
   -0.3204   -0.0302   -0.5253 Fe  0  2  0  0  0  0  0  0  0  0  0  0
   -3.0642   -0.3960   -1.5233 C   0  0  0  0  0  0  0  0  0  0  0  0
    0.2571    2.9223   -0.3082 C   0  0  0  0  0  0  0  0  0  0  0  0
   -2.8627    0.6832    1.5970 H   0  0  0  0  0  0  0  0  0  0  0  0
   -3.8652    1.1312    0.2375 H   0  0  0  0  0  0  0  0  0  0  0  0
   -2.2270    2.9677    0.9140 H   0  0  0  0  0  0  0  0  0  0  0  0
   -2.1191    2.4620   -0.7794 H   0  0  0  0  0  0  0  0  0  0  0  0
   -0.3293    2.5083    2.3871 H   0  0  0  0  0  0  0  0  0  0  0  0
    1.1063    1.7474    1.6976 H   0  0  0  0  0  0  0  0  0  0  0  0
   -1.4030    0.3593    2.7346 H   0  0  0  0  0  0  0  0  0  0  0  0
    0.2472    0.1470    3.2627 H   0  0  0  0  0  0  0  0  0  0  0  0
   -2.5520   -2.3628   -0.1396 H   0  0  0  0  0  0  0  0  0  0  0  0
   -3.4776   -1.4940    1.0866 H   0  0  0  0  0  0  0  0  0  0  0  0
   -0.9359   -2.7863    1.3528 H   0  0  0  0  0  0  0  0  0  0  0  0
   -1.6723   -1.7902    2.6032 H   0  0  0  0  0  0  0  0  0  0  0  0
    1.4132   -1.5502    2.5607 H   0  0  0  0  0  0  0  0  0  0  0  0
    1.9984    1.0919   -2.0743 H   0  0  0  0  0  0  0  0  0  0  0  0
    4.4934    1.0565   -1.7908 H   0  0  0  0  0  0  0  0  0  0  0  0
    5.4534   -0.1013    0.2240 H   0  0  0  0  0  0  0  0  0  0  0  0
    3.8959   -1.2262    1.8290 H   0  0  0  0  0  0  0  0  0  0  0  0
   -2.9925    0.5506   -2.0585 H   0  0  0  0  0  0  0  0  0  0  0  0
   -2.6141   -1.1901   -2.1175 H   0  0  0  0  0  0  0  0  0  0  0  0
   -4.1145   -0.6336   -1.3228 H   0  0  0  0  0  0  0  0  0  0  0  0
   -0.0264    2.9598   -1.3588 H   0  0  0  0  0  0  0  0  0  0  0  0
    0.0207    3.8766    0.1759 H   0  0  0  0  0  0  0  0  0  0  0  0
    1.3263    2.7349   -0.2247 H   0  0  0  0  0  0  0  0  0  0  0  0
    1.0632   -2.4300    1.0632 H   0  0  0  0  0  0  0  0  0  0  0  0
   -0.4385    0.7925   -2.0581 O   0  0  0  0  0  0  0  0  0  0  0  0
   -0.4207    0.1775   -2.8194 H   0  0  0  0  0  0  0  0  0  0  0  0
   -0.1072   -2.0750   -1.4367 Cl  0  0  0  0  0  0  0  0  0  0  0  0
  1 18  1  6  0  0  0
  1  2  1  0  0  0  0
  1  8  1  0  0  0  0
  1 17  9  0  0  0  0
  2 20  1  0  0  0  0
  3  4  1  0  0  0  0
  3  2  1  0  0  0  0
  3 22  1  0  0  0  0
  4 19  1  6  0  0  0
  4  5  1  0  0  0  0
  4 17  9  0  0  0  0
  5  6  1  0  0  0  0
  5 24  1  0  0  0  0
  6 26  1  0  0  0  0
  6 27  1  0  0  0  0
  7 10  1  1  0  0  0
  7  9  1  0  0  0  0
  7  6  1  0  0  0  0
  7 17  9  0  0  0  0
  8 29  1  0  0  0  0
  8  9  1  0  0  0  0
  9 31  1  0  0  0  0
 10 32  1  0  0  0  0
 11 16  2  0  0  0  0
 11 10  1  0  0  0  0
 12 11  1  0  0  0  0
 12 17  9  0  0  0  0
 13 14  1  0  0  0  0
 13 12  2  0  0  0  0
 14 15  2  0  0  0  0
 15 35  1  0  0  0  0
 15 16  1  0  0  0  0
 16 36  1  0  0  0  0
 18 39  1  0  0  0  0
 19 42  1  0  0  0  0
 19 41  1  0  0  0  0
 21  2  1  0  0  0  0
 23  3  1  0  0  0  0
 25  5  1  0  0  0  0
 28  8  1  0  0  0  0
 30  9  1  0  0  0  0
 33 13  1  0  0  0  0
 34 14  1  0  0  0  0
 37 18  1  0  0  0  0
 38 18  1  0  0  0  0
 40 19  1  0  0  0  0
 43 10  1  0  0  0  0
 44 17  1  0  0  0  0
 45 44  1  0  0  0  0
 46 17  1  0  0  0  0
M  CHG  1  17   2
M  END
$$$$
