
 OpenBabel02052520073D

 46 50  0  0  0  0  0  0  0  0999 V2000
   -2.3290   -0.1691   -0.4610 N   0  0  2  0  0  0  0  0  0  0  0  0
   -2.8207    0.4804    0.8037 C   0  0  0  0  0  0  0  0  0  0  0  0
   -1.9723    1.6963    1.1240 C   0  0  0  0  0  0  0  0  0  0  0  0
   -0.5011    1.3984    1.0362 N   0  0  1  0  0  0  0  0  0  0  0  0
    0.0669    0.6430    2.1969 C   0  0  0  0  0  0  0  0  0  0  0  0
   -0.2978   -0.8377    2.1675 C   0  0  0  0  0  0  0  0  0  0  0  0
   -0.2452   -1.4014    0.7693 N   0  0  2  0  0  0  0  0  0  0  0  0
   -2.4748   -1.6630   -0.4054 C   0  0  0  0  0  0  0  0  0  0  0  0
   -1.4064   -2.3273    0.4985 C   0  0  0  0  0  0  0  0  0  0  0  0
    1.0817   -2.0351    0.4840 C   0  0  0  0  0  0  0  0  0  0  0  0
    2.1124   -0.9788    0.1788 C   0  0  0  0  0  0  0  0  0  0  0  0
    1.6382    0.1379   -0.4288 N   0  0  0  0  0  0  0  0  0  0  0  0
    2.4775    1.0794   -0.9038 C   0  0  0  0  0  0  0  0  0  0  0  0
    3.8530    0.9584   -0.7457 C   0  0  0  0  0  0  0  0  0  0  0  0
    4.3591   -0.1623   -0.0824 C   0  0  0  0  0  0  0  0  0  0  0  0
    3.4776   -1.1430    0.3830 C   0  0  0  0  0  0  0  0  0  0  0  0
   -0.3225    0.1548   -0.6459 Fe  0  2  0  0  0  0  0  0  0  0  0  0
   -3.0591    0.3707   -1.6499 C   0  0  0  0  0  0  0  0  0  0  0  0
    0.2142    2.7068    0.9198 C   0  0  0  0  0  0  0  0  0  0  0  0
   -2.8013   -0.2556    1.6040 H   0  0  0  0  0  0  0  0  0  0  0  0
   -3.8666    0.7774    0.6737 H   0  0  0  0  0  0  0  0  0  0  0  0
   -2.2159    2.0960    2.1155 H   0  0  0  0  0  0  0  0  0  0  0  0
   -2.1669    2.4811    0.3902 H   0  0  0  0  0  0  0  0  0  0  0  0
   -0.2632    1.0966    3.1395 H   0  0  0  0  0  0  0  0  0  0  0  0
    1.1494    0.7604    2.1391 H   0  0  0  0  0  0  0  0  0  0  0  0
   -1.2960   -0.9980    2.5679 H   0  0  0  0  0  0  0  0  0  0  0  0
    0.3852   -1.3927    2.8190 H   0  0  0  0  0  0  0  0  0  0  0  0
   -2.3612   -2.0213   -1.4261 H   0  0  0  0  0  0  0  0  0  0  0  0
   -3.4891   -1.9025   -0.0660 H   0  0  0  0  0  0  0  0  0  0  0  0
   -1.0387   -3.2195   -0.0083 H   0  0  0  0  0  0  0  0  0  0  0  0
   -1.8285   -2.6560    1.4506 H   0  0  0  0  0  0  0  0  0  0  0  0
    1.3922   -2.6907    1.3044 H   0  0  0  0  0  0  0  0  0  0  0  0
    2.0169    1.9186   -1.4119 H   0  0  0  0  0  0  0  0  0  0  0  0
    4.5076    1.7289   -1.1386 H   0  0  0  0  0  0  0  0  0  0  0  0
    5.4288   -0.2787    0.0626 H   0  0  0  0  0  0  0  0  0  0  0  0
    3.8451   -2.0337    0.8826 H   0  0  0  0  0  0  0  0  0  0  0  0
   -2.9780    1.4576   -1.6600 H   0  0  0  0  0  0  0  0  0  0  0  0
   -2.6058   -0.0292   -2.5558 H   0  0  0  0  0  0  0  0  0  0  0  0
   -4.1112    0.0711   -1.5970 H   0  0  0  0  0  0  0  0  0  0  0  0
   -0.0949    3.2049    0.0010 H   0  0  0  0  0  0  0  0  0  0  0  0
   -0.0284    3.3350    1.7841 H   0  0  0  0  0  0  0  0  0  0  0  0
    1.2895    2.5374    0.8973 H   0  0  0  0  0  0  0  0  0  0  0  0
    0.9669   -2.6420   -0.4183 H   0  0  0  0  0  0  0  0  0  0  0  0
   -0.3968    1.4519   -1.6284 O   0  0  0  0  0  1  0  0  0  0  0  0
   -0.2237   -1.0964   -1.8965 O   0  0  0  0  0  0  0  0  0  0  0  0
   -0.0970   -0.7007   -2.7806 H   0  0  0  0  0  0  0  0  0  0  0  0
  1 18  1  6  0  0  0
  1  8  1  0  0  0  0
  1  2  1  0  0  0  0
  1 17  9  0  0  0  0
  2  3  1  0  0  0  0
  2 20  1  0  0  0  0
  3 22  1  0  0  0  0
  4 19  1  6  0  0  0
  4  3  1  0  0  0  0
  4  5  1  0  0  0  0
  4 17  9  0  0  0  0
  5 24  1  0  0  0  0
  6  5  1  0  0  0  0
  6 26  1  0  0  0  0
  6 27  1  0  0  0  0
  7 10  1  6  0  0  0
  7  6  1  0  0  0  0
  7 17  9  0  0  0  0
  8 29  1  0  0  0  0
  8  9  1  0  0  0  0
  9  7  1  0  0  0  0
  9 31  1  0  0  0  0
 10 32  1  0  0  0  0
 11 16  2  0  0  0  0
 11 10  1  0  0  0  0
 12 11  1  0  0  0  0
 12 17  9  0  0  0  0
 13 14  1  0  0  0  0
 13 12  2  0  0  0  0
 14 15  2  0  0  0  0
 15 35  1  0  0  0  0
 15 16  1  0  0  0  0
 16 36  1  0  0  0  0
 18 39  1  0  0  0  0
 19 41  1  0  0  0  0
 21  2  1  0  0  0  0
 23  3  1  0  0  0  0
 25  5  1  0  0  0  0
 28  8  1  0  0  0  0
 30  9  1  0  0  0  0
 33 13  1  0  0  0  0
 34 14  1  0  0  0  0
 37 18  1  0  0  0  0
 38 18  1  0  0  0  0
 40 19  1  0  0  0  0
 42 19  1  0  0  0  0
 43 10  1  0  0  0  0
 44 17  1  0  0  0  0
 45 17  1  0  0  0  0
 46 45  1  0  0  0  0
M  RAD  1  44   2
M  CHG  1  17   2
M  END
$$$$
