
 OpenBabel02072512503D

 48 51  0  0  0  0  0  0  0  0999 V2000
    0.0358    0.0229   -0.7833 Fe  0  3  0  0  0 37  0  0  0  0  0  0
   -2.8830   -1.0471   -1.1020 C   0  0  0  0  0  0  0  0  0  0  0  0
   -2.3186   -1.7987   -1.6434 H   0  0  0  0  0  0  0  0  0  0  0  0
   -2.1373   -0.0928   -0.5193 N   0  0  0  0  0  0  0  0  0  0  0  0
   -0.4820    1.3937    1.0465 N   0  0  2  0  0  0  0  0  0  0  0  0
   -4.2714   -1.0542   -1.0107 C   0  0  0  0  0  0  0  0  0  0  0  0
    0.5250   -1.3225    1.0230 N   0  0  1  0  0  0  0  0  0  0  0  0
    2.1958    0.2286   -0.4751 N   0  0  0  0  0  0  0  0  0  0  0  0
   -4.8972   -0.0380   -0.2864 C   0  0  0  0  0  0  0  0  0  0  0  0
   -4.1175    0.9511    0.3159 C   0  0  0  0  0  0  0  0  0  0  0  0
   -4.5733    1.7543    0.8863 H   0  0  0  0  0  0  0  0  0  0  0  0
   -2.7331    0.8984    0.1697 C   0  0  0  0  0  0  0  0  0  0  0  0
   -1.8058    1.9607    0.7129 C   0  0  0  0  0  0  0  0  0  0  0  0
   -1.6460    2.7069   -0.0729 H   0  0  0  0  0  0  0  0  0  0  0  0
   -2.2555    2.4710    1.5771 H   0  0  0  0  0  0  0  0  0  0  0  0
    0.5101    2.4777    1.1937 C   0  0  0  0  0  0  0  0  0  0  0  0
    0.6150    2.9868    0.2336 H   0  0  0  0  0  0  0  0  0  0  0  0
    1.4787    2.0569    1.4657 H   0  0  0  0  0  0  0  0  0  0  0  0
   -0.5508    0.5362    2.2545 C   0  0  0  0  0  0  0  0  0  0  0  0
   -1.5182    0.0279    2.2530 H   0  0  0  0  0  0  0  0  0  0  0  0
    0.5727   -0.4976    2.2534 C   0  0  0  0  0  0  0  0  0  0  0  0
    1.5410    0.0081    2.2859 H   0  0  0  0  0  0  0  0  0  0  0  0
   -0.4665   -2.4140    1.1204 C   0  0  0  0  0  0  0  0  0  0  0  0
   -0.5512   -2.8882    0.1416 H   0  0  0  0  0  0  0  0  0  0  0  0
   -1.4402   -2.0021    1.3890 H   0  0  0  0  0  0  0  0  0  0  0  0
    1.8538   -1.8707    0.6764 C   0  0  0  0  0  0  0  0  0  0  0  0
    1.6986   -2.5658   -0.1554 H   0  0  0  0  0  0  0  0  0  0  0  0
    2.2939   -2.4255    1.5173 H   0  0  0  0  0  0  0  0  0  0  0  0
    2.7826   -0.7779    0.2016 C   0  0  0  0  0  0  0  0  0  0  0  0
    4.1619   -0.8156    0.3962 C   0  0  0  0  0  0  0  0  0  0  0  0
    4.6084   -1.6316    0.9554 H   0  0  0  0  0  0  0  0  0  0  0  0
    4.9480    0.2046   -0.1417 C   0  0  0  0  0  0  0  0  0  0  0  0
    4.3331    1.2356   -0.8543 C   0  0  0  0  0  0  0  0  0  0  0  0
    2.9495    1.2103   -0.9980 C   0  0  0  0  0  0  0  0  0  0  0  0
    2.4035    1.9746   -1.5408 H   0  0  0  0  0  0  0  0  0  0  0  0
   -5.9784   -0.0151   -0.1898 H   0  0  0  0  0  0  0  0  0  0  0  0
   -4.8436   -1.8381   -1.4947 H   0  0  0  0  0  0  0  0  0  0  0  0
    6.0251    0.1945   -0.0049 H   0  0  0  0  0  0  0  0  0  0  0  0
    4.9097    2.0442   -1.2902 H   0  0  0  0  0  0  0  0  0  0  0  0
   -0.1700   -3.1556    1.8757 H   0  0  0  0  0  0  0  0  0  0  0  0
    0.2047    3.1989    1.9651 H   0  0  0  0  0  0  0  0  0  0  0  0
   -0.5045    1.1437    3.1697 H   0  0  0  0  0  0  0  0  0  0  0  0
    0.5060   -1.1286    3.1511 H   0  0  0  0  0  0  0  0  0  0  0  0
    0.0648   -1.5147   -1.8099 O   0  0  0  0  0  1  0  0  0  0  0  0
    0.2165   -1.4402   -2.7661 H   0  0  0  0  0  0  0  0  0  0  0  0
   -0.0514    1.5823   -1.9350 N   0  0  0  0  0  0  0  0  0  0  0  0
   -0.5884    1.7006   -3.0232 N   0  3  0  0  0  0  0  0  0  0  0  0
   -1.0909    1.8486   -4.0460 N   0  5  0  0  0  0  0  0  0  0  0  0
  1 46  1  0  0  0  0
  2  6  2  0  0  0  0
  2  4  1  0  0  0  0
  3  2  1  0  0  0  0
  4 12  2  0  0  0  0
  4  1  9  0  0  0  0
  5 16  1  1  0  0  0
  5 19  1  0  0  0  0
  5  1  9  0  0  0  0
  6  9  1  0  0  0  0
  7 23  1  1  0  0  0
  7 21  1  0  0  0  0
  7  1  9  0  0  0  0
  8 29  1  0  0  0  0
  8  1  9  0  0  0  0
  9 36  1  0  0  0  0
  9 10  2  0  0  0  0
 10 11  1  0  0  0  0
 12 10  1  0  0  0  0
 12 13  1  0  0  0  0
 13  5  1  0  0  0  0
 13 15  1  0  0  0  0
 14 13  1  0  0  0  0
 16 18  1  0  0  0  0
 16 41  1  0  0  0  0
 17 16  1  0  0  0  0
 19 42  1  0  0  0  0
 20 19  1  0  0  0  0
 21 19  1  0  0  0  0
 21 22  1  0  0  0  0
 21 43  1  0  0  0  0
 23 25  1  0  0  0  0
 23 40  1  0  0  0  0
 24 23  1  0  0  0  0
 26  7  1  0  0  0  0
 26 28  1  0  0  0  0
 27 26  1  0  0  0  0
 29 30  2  0  0  0  0
 29 26  1  0  0  0  0
 30 31  1  0  0  0  0
 32 38  1  0  0  0  0
 32 30  1  0  0  0  0
 33 32  2  0  0  0  0
 34 33  1  0  0  0  0
 34  8  2  0  0  0  0
 35 34  1  0  0  0  0
 37  6  1  0  0  0  0
 39 33  1  0  0  0  0
 45 44  1  0  0  0  0
 47 46  2  0  0  0  0
 48 47  2  0  0  0  0
M  RAD  2   1   2  44   2
M  CHG  3   1   1  47   1  48  -1
M  END
$$$$
