
 OpenBabel02052520073D

 48 52  0  0  0  0  0  0  0  0999 V2000
    0.0810   -0.0891   -0.6526 Fe  0  3  0  0  0  0  0  0  0  0  0  0
    2.8122    1.4661   -0.2898 C   0  0  0  0  0  0  0  0  0  0  0  0
    2.1422    2.3154   -0.3624 H   0  0  0  0  0  0  0  0  0  0  0  0
    2.2232    0.2589   -0.3223 N   0  0  0  0  0  0  0  0  0  0  0  0
    0.8738   -2.0446    0.2170 N   0  0  2  0  0  0  0  0  0  0  0  0
    4.1912    1.6129   -0.1774 C   0  0  0  0  0  0  0  0  0  0  0  0
   -0.4298    0.1200    1.6455 N   0  0  1  0  0  0  0  0  0  0  0  0
   -2.0271   -0.6177   -0.4216 N   0  0  0  0  0  0  0  0  0  0  0  0
    4.9792    0.4636   -0.0953 C   0  0  0  0  0  0  0  0  0  0  0  0
    4.3642   -0.7887   -0.1333 C   0  0  0  0  0  0  0  0  0  0  0  0
    4.9476   -1.7019   -0.0713 H   0  0  0  0  0  0  0  0  0  0  0  0
    2.9782   -0.8552   -0.2578 C   0  0  0  0  0  0  0  0  0  0  0  0
    2.2234   -2.1574   -0.3819 C   0  0  0  0  0  0  0  0  0  0  0  0
    2.0780   -2.3645   -1.4470 H   0  0  0  0  0  0  0  0  0  0  0  0
    2.7900   -2.9878    0.0623 H   0  0  0  0  0  0  0  0  0  0  0  0
    0.0283   -3.1746   -0.2261 C   0  0  0  0  0  0  0  0  0  0  0  0
   -0.0846   -3.1142   -1.3093 H   0  0  0  0  0  0  0  0  0  0  0  0
   -0.9594   -3.0939    0.2292 H   0  0  0  0  0  0  0  0  0  0  0  0
    0.9410   -1.9452    1.6958 C   0  0  0  0  0  0  0  0  0  0  0  0
    1.8426   -1.3864    1.9578 H   0  0  0  0  0  0  0  0  0  0  0  0
   -0.2890   -1.2300    2.2449 C   0  0  0  0  0  0  0  0  0  0  0  0
   -1.1872   -1.8028    2.0013 H   0  0  0  0  0  0  0  0  0  0  0  0
    0.4400    1.1089    2.3145 C   0  0  0  0  0  0  0  0  0  0  0  0
    0.3775    2.0584    1.7803 H   0  0  0  0  0  0  0  0  0  0  0  0
    1.4757    0.7685    2.2845 H   0  0  0  0  0  0  0  0  0  0  0  0
   -1.8380    0.5692    1.6843 C   0  0  0  0  0  0  0  0  0  0  0  0
   -1.8578    1.6350    1.4337 H   0  0  0  0  0  0  0  0  0  0  0  0
   -2.2627    0.4642    2.6934 H   0  0  0  0  0  0  0  0  0  0  0  0
   -2.6768   -0.1774    0.6720 C   0  0  0  0  0  0  0  0  0  0  0  0
   -4.0488   -0.3661    0.8262 C   0  0  0  0  0  0  0  0  0  0  0  0
   -4.5478   -0.0102    1.7220 H   0  0  0  0  0  0  0  0  0  0  0  0
   -4.7601   -1.0094   -0.1874 C   0  0  0  0  0  0  0  0  0  0  0  0
   -4.0795   -1.4532   -1.3231 C   0  0  0  0  0  0  0  0  0  0  0  0
   -2.7079   -1.2377   -1.4017 C   0  0  0  0  0  0  0  0  0  0  0  0
   -2.1061   -1.5474   -2.2492 H   0  0  0  0  0  0  0  0  0  0  0  0
    6.0582    0.5402   -0.0014 H   0  0  0  0  0  0  0  0  0  0  0  0
    4.6310    2.6039   -0.1544 H   0  0  0  0  0  0  0  0  0  0  0  0
   -5.8305   -1.1634   -0.0904 H   0  0  0  0  0  0  0  0  0  0  0  0
   -4.5976   -1.9560   -2.1324 H   0  0  0  0  0  0  0  0  0  0  0  0
    0.1426    1.2604    3.3618 H   0  0  0  0  0  0  0  0  0  0  0  0
    0.4764   -4.1379    0.0546 H   0  0  0  0  0  0  0  0  0  0  0  0
    1.0331   -2.9424    2.1486 H   0  0  0  0  0  0  0  0  0  0  0  0
   -0.2314   -1.1669    3.3410 H   0  0  0  0  0  0  0  0  0  0  0  0
    0.2173   -0.9039   -2.3052 O   0  0  0  0  0  0  0  0  0  0  0  0
    0.2245   -0.3141   -3.0775 H   0  0  0  0  0  0  0  0  0  0  0  0
   -0.2936    1.7951   -0.9072 N   0  0  0  0  0  0  0  0  0  0  0  0
   -0.7477    2.8757   -0.6484 C   0  0  0  0  0  0  0  0  0  0  0  0
   -1.3552    4.3001   -0.2587 S   0  0  0  0  0  0  0  0  0  0  0  0
  2  6  1  0  0  0  0
  3  2  1  0  0  0  0
  4  2  2  0  0  0  0
  4 12  1  0  0  0  0
  4  1  9  0  0  0  0
  5 16  1  6  0  0  0
  5 19  1  0  0  0  0
  5  1  9  0  0  0  0
  6 37  1  0  0  0  0
  6  9  2  0  0  0  0
  7 26  1  0  0  0  0
  7 21  1  0  0  0  0
  7 23  1  1  0  0  0
  7  1  9  0  0  0  0
  8 29  1  0  0  0  0
  8  1  9  0  0  0  0
  9 36  1  0  0  0  0
 10  9  1  0  0  0  0
 10 11  1  0  0  0  0
 12 10  2  0  0  0  0
 13 12  1  0  0  0  0
 13 15  1  0  0  0  0
 13  5  1  0  0  0  0
 14 13  1  0  0  0  0
 16 41  1  0  0  0  0
 16 18  1  0  0  0  0
 17 16  1  0  0  0  0
 19 20  1  0  0  0  0
 19 42  1  0  0  0  0
 19 21  1  0  0  0  0
 21 43  1  0  0  0  0
 22 21  1  0  0  0  0
 23 40  1  0  0  0  0
 24 23  1  0  0  0  0
 25 23  1  0  0  0  0
 26 28  1  0  0  0  0
 27 26  1  0  0  0  0
 29 30  2  0  0  0  0
 29 26  1  0  0  0  0
 30 31  1  0  0  0  0
 32 38  1  0  0  0  0
 32 30  1  0  0  0  0
 33 32  2  0  0  0  0
 34 33  1  0  0  0  0
 34  8  2  0  0  0  0
 35 34  1  0  0  0  0
 39 33  1  0  0  0  0
 44  1  1  0  0  0  0
 45 44  1  0  0  0  0
 46  1  1  0  0  0  0
 46 47  2  0  0  0  0
 47 48  2  0  0  0  0
M  CHG  1   1   1
M  END
$$$$
