
 OpenBabel02052520073D

 53 60  0  0  0  0  0  0  0  0999 V2000
   -2.9333   -3.3032    0.6852 C   0  0  0  0  0  0  0  0  0  0  0  0
   -3.6457   -3.0967   -0.4964 C   0  0  0  0  0  0  0  0  0  0  0  0
   -3.2858   -2.0389   -1.3402 C   0  0  0  0  0  0  0  0  0  0  0  0
   -2.2244   -1.2260   -0.9652 C   0  0  0  0  0  0  0  0  0  0  0  0
   -1.5358   -1.4325    0.1774 N   0  0  0  0  0  0  0  0  0  0  0  0
   -1.7623    0.0001   -1.7453 C   0  0  1  0  0  0  0  0  0  0  0  0
   -2.2244    1.2260   -0.9651 C   0  0  0  0  0  0  0  0  0  0  0  0
   -3.2858    2.0389   -1.3401 C   0  0  0  0  0  0  0  0  0  0  0  0
   -3.6457    3.0967   -0.4962 C   0  0  0  0  0  0  0  0  0  0  0  0
   -2.9333    3.3032    0.6854 C   0  0  0  0  0  0  0  0  0  0  0  0
   -1.8766    2.4455    0.9883 C   0  0  0  0  0  0  0  0  0  0  0  0
   -1.5358    1.4325    0.1775 N   0  0  0  0  0  0  0  0  0  0  0  0
   -0.2641    0.0001   -1.7595 N   0  0  2  0  0  0  0  0  0  0  0  0
    0.3344    1.2372   -2.3289 C   0  0  0  0  0  0  0  0  0  0  0  0
    0.3344   -1.2370   -2.3290 C   0  0  0  0  0  0  0  0  0  0  0  0
    1.5042   -1.7438   -1.5089 C   0  0  0  0  0  0  0  0  0  0  0  0
    1.5042    1.7439   -1.5088 C   0  0  0  0  0  0  0  0  0  0  0  0
    2.5067    2.5318   -2.0688 C   0  0  0  0  0  0  0  0  0  0  0  0
    3.5056    3.0484   -1.2409 C   0  0  0  0  0  0  0  0  0  0  0  0
    3.4783    2.7581    0.1249 C   0  0  0  0  0  0  0  0  0  0  0  0
    2.4550    1.9523    0.6105 C   0  0  0  0  0  0  0  0  0  0  0  0
    1.4902    1.4600   -0.1902 N   0  0  0  0  0  0  0  0  0  0  0  0
    1.4902   -1.4600   -0.1903 N   0  0  0  0  0  0  0  0  0  0  0  0
    2.4551   -1.9524    0.6103 C   0  0  0  0  0  0  0  0  0  0  0  0
    3.4783   -2.7581    0.1247 C   0  0  0  0  0  0  0  0  0  0  0  0
    3.5056   -3.0483   -1.2411 C   0  0  0  0  0  0  0  0  0  0  0  0
    2.5067   -2.5316   -2.0690 C   0  0  0  0  0  0  0  0  0  0  0  0
   -1.8767   -2.4455    0.9882 C   0  0  0  0  0  0  0  0  0  0  0  0
   -2.1876    0.0001   -2.7558 H   0  0  0  0  0  0  0  0  0  0  0  0
   -3.1866   -4.1113    1.3628 H   0  0  0  0  0  0  0  0  0  0  0  0
   -4.4712   -3.7495   -0.7628 H   0  0  0  0  0  0  0  0  0  0  0  0
   -3.8198   -1.8549   -2.2670 H   0  0  0  0  0  0  0  0  0  0  0  0
   -3.8198    1.8551   -2.2669 H   0  0  0  0  0  0  0  0  0  0  0  0
   -4.4712    3.7496   -0.7626 H   0  0  0  0  0  0  0  0  0  0  0  0
   -3.1866    4.1112    1.3630 H   0  0  0  0  0  0  0  0  0  0  0  0
   -1.2851    2.5539    1.8915 H   0  0  0  0  0  0  0  0  0  0  0  0
    0.6348    1.0803   -3.3708 H   0  0  0  0  0  0  0  0  0  0  0  0
   -0.4306    2.0196   -2.3399 H   0  0  0  0  0  0  0  0  0  0  0  0
   -0.4306   -2.0195   -2.3400 H   0  0  0  0  0  0  0  0  0  0  0  0
    0.6348   -1.0801   -3.3708 H   0  0  0  0  0  0  0  0  0  0  0  0
    2.5032    2.7418   -3.1339 H   0  0  0  0  0  0  0  0  0  0  0  0
    4.2949    3.6664   -1.6577 H   0  0  0  0  0  0  0  0  0  0  0  0
    4.2356    3.1408    0.8003 H   0  0  0  0  0  0  0  0  0  0  0  0
    2.3856    1.6766    1.6572 H   0  0  0  0  0  0  0  0  0  0  0  0
    2.3856   -1.6767    1.6571 H   0  0  0  0  0  0  0  0  0  0  0  0
    4.2356   -3.1408    0.8001 H   0  0  0  0  0  0  0  0  0  0  0  0
    4.2949   -3.6662   -1.6580 H   0  0  0  0  0  0  0  0  0  0  0  0
    2.5032   -2.7415   -3.1341 H   0  0  0  0  0  0  0  0  0  0  0  0
   -1.2851   -2.5540    1.8914 H   0  0  0  0  0  0  0  0  0  0  0  0
    0.0763   -0.0000    0.4803 Fe  0  2  0  0  0  0  0  0  0  0  0  0
    0.3214   -0.0001    2.3330 N   0  0  0  0  0  0  0  0  0  0  0  0
    0.4221   -0.0001    3.5400 C   0  0  0  0  0  0  0  0  0  0  0  0
    0.5587   -0.0002    5.1119 S   0  0  0  0  0  0  0  0  0  0  0  0
  1 28  1  0  0  0  0
  1 30  1  0  0  0  0
  2  1  2  0  0  0  0
  3  4  2  0  0  0  0
  3  2  1  0  0  0  0
  4  5  1  0  0  0  0
  5 28  2  0  0  0  0
  5 50  9  0  0  0  0
  6 29  1  6  0  0  0
  6  4  1  0  0  0  0
  6  7  1  0  0  0  0
  7 12  1  0  0  0  0
  8  7  2  0  0  0  0
  8  9  1  0  0  0  0
  9 10  2  0  0  0  0
 10 11  1  0  0  0  0
 10 35  1  0  0  0  0
 11 36  1  0  0  0  0
 12 11  2  0  0  0  0
 12 50  9  0  0  0  0
 13 15  1  6  0  0  0
 13  6  1  0  0  0  0
 13 50  9  0  0  0  0
 14 13  1  0  0  0  0
 14 17  1  0  0  0  0
 15 16  1  0  0  0  0
 16 23  2  0  0  0  0
 17 22  1  0  0  0  0
 18 17  2  0  0  0  0
 18 19  1  0  0  0  0
 19 20  2  0  0  0  0
 20 21  1  0  0  0  0
 20 43  1  0  0  0  0
 21 44  1  0  0  0  0
 22 21  2  0  0  0  0
 22 50  9  0  0  0  0
 23 24  1  0  0  0  0
 23 50  9  0  0  0  0
 24 45  1  0  0  0  0
 25 24  2  0  0  0  0
 25 46  1  0  0  0  0
 26 25  1  0  0  0  0
 27 16  1  0  0  0  0
 27 26  2  0  0  0  0
 28 49  1  0  0  0  0
 31  2  1  0  0  0  0
 32  3  1  0  0  0  0
 33  8  1  0  0  0  0
 34  9  1  0  0  0  0
 37 14  1  0  0  0  0
 38 14  1  0  0  0  0
 39 15  1  0  0  0  0
 40 15  1  0  0  0  0
 41 18  1  0  0  0  0
 42 19  1  0  0  0  0
 47 26  1  0  0  0  0
 48 27  1  0  0  0  0
 50 51  1  0  0  0  0
 51 52  2  0  0  0  0
 52 53  2  0  0  0  0
M  CHG  1  50   2
M  END
$$$$
