
 OpenBabel02052520073D

 64 69  0  0  0  0  0  0  0  0999 V2000
    0.1908   -0.3634    0.0905 Fe  0  2  0  0  0  0  0  0  0  0  0  0
    0.8000    1.6151    0.0976 N   0  0  0  0  0  0  0  0  0  0  0  0
    0.7811    2.3079   -1.0583 C   0  0  0  0  0  0  0  0  0  0  0  0
    1.3322   -0.1246    2.1079 N   0  0  1  0  0  0  0  0  0  0  0  0
    3.5711   -0.4234   -0.3391 N   0  0  0  0  0  0  0  0  0  0  0  0
    0.7995    0.0597   -2.1229 N   0  0  1  0  0  0  0  0  0  0  0  0
    1.3520    3.5706    1.3339 C   0  0  0  0  0  0  0  0  0  0  0  0
    1.5810    4.0446    2.2829 H   0  0  0  0  0  0  0  0  0  0  0  0
    1.0805    2.2067    1.2755 C   0  0  0  0  0  0  0  0  0  0  0  0
    1.0358    1.2908    2.4762 C   0  0  0  0  0  0  0  0  0  0  0  0
    0.0140    1.3091    2.8669 H   0  0  0  0  0  0  0  0  0  0  0  0
    1.7023    1.6455    3.2730 H   0  0  0  0  0  0  0  0  0  0  0  0
    0.7280   -1.0449    3.1267 C   0  0  0  0  0  0  0  0  0  0  0  0
    1.1839   -0.8754    4.1099 H   0  0  0  0  0  0  0  0  0  0  0  0
    0.8981   -2.0755    2.8138 H   0  0  0  0  0  0  0  0  0  0  0  0
   -0.3431   -0.8668    3.1773 H   0  0  0  0  0  0  0  0  0  0  0  0
    2.7872   -0.4184    2.0831 C   0  0  0  0  0  0  0  0  0  0  0  0
    2.8976   -1.5022    2.0231 H   0  0  0  0  0  0  0  0  0  0  0  0
    3.2335   -0.0948    3.0335 H   0  0  0  0  0  0  0  0  0  0  0  0
    3.6288    0.2377    0.9664 C   0  0  0  0  0  0  0  0  0  0  0  0
    3.3818    1.2902    0.8375 H   0  0  0  0  0  0  0  0  0  0  0  0
    4.6766    0.1742    1.2926 H   0  0  0  0  0  0  0  0  0  0  0  0
    4.3281   -1.6641   -0.4920 C   0  0  0  0  0  0  0  0  0  0  0  0
    5.3890   -1.3944   -0.6165 H   0  0  0  0  0  0  0  0  0  0  0  0
    3.9914   -2.2121   -1.3714 H   0  0  0  0  0  0  0  0  0  0  0  0
    4.2184   -2.2906    0.3925 H   0  0  0  0  0  0  0  0  0  0  0  0
    3.3097    0.3544   -1.5522 C   0  0  0  0  0  0  0  0  0  0  0  0
    4.2444    0.3368   -2.1307 H   0  0  0  0  0  0  0  0  0  0  0  0
    3.1102    1.3868   -1.2705 H   0  0  0  0  0  0  0  0  0  0  0  0
    2.2141   -0.2108   -2.4829 C   0  0  0  0  0  0  0  0  0  0  0  0
    2.4153    0.2037   -3.4804 H   0  0  0  0  0  0  0  0  0  0  0  0
    2.3283   -1.2938   -2.5505 H   0  0  0  0  0  0  0  0  0  0  0  0
   -0.0415   -0.7803   -3.0374 C   0  0  0  0  0  0  0  0  0  0  0  0
   -1.0911   -0.6154   -2.8085 H   0  0  0  0  0  0  0  0  0  0  0  0
    0.1937   -1.8310   -2.8649 H   0  0  0  0  0  0  0  0  0  0  0  0
    0.1607   -0.5213   -4.0840 H   0  0  0  0  0  0  0  0  0  0  0  0
    1.0438    3.6745   -1.0675 C   0  0  0  0  0  0  0  0  0  0  0  0
    1.0315    4.2298   -1.9998 H   0  0  0  0  0  0  0  0  0  0  0  0
    0.4247    1.4951   -2.2809 C   0  0  0  0  0  0  0  0  0  0  0  0
    0.8638    1.9272   -3.1894 H   0  0  0  0  0  0  0  0  0  0  0  0
   -0.6637    1.5260   -2.3913 H   0  0  0  0  0  0  0  0  0  0  0  0
   -1.4086   -0.1333    1.3907 O   0  0  0  0  0  0  0  0  0  0  0  0
   -1.6607   -0.1179   -0.7451 O   0  0  0  0  0  0  0  0  0  0  0  0
   -2.2296   -0.0537    0.4080 C   0  0  0  0  0  0  0  0  0  0  0  0
   -4.3305   -1.3511    0.3061 C   0  0  0  0  0  0  0  0  0  0  0  0
   -4.0683   -1.6614   -0.7138 H   0  0  0  0  0  0  0  0  0  0  0  0
   -3.9023   -2.0870    0.9970 H   0  0  0  0  0  0  0  0  0  0  0  0
   -3.7014    0.0527    0.5730 C   0  0  0  0  0  0  0  0  0  0  0  0
   -3.8905    0.3242    1.6184 H   0  0  0  0  0  0  0  0  0  0  0  0
   -5.8573   -1.2834    0.4596 C   0  0  0  0  0  0  0  0  0  0  0  0
   -6.1048   -1.0584    1.5061 H   0  0  0  0  0  0  0  0  0  0  0  0
   -6.2794   -2.2706    0.2411 H   0  0  0  0  0  0  0  0  0  0  0  0
   -6.4718   -0.2177   -0.4590 C   0  0  0  0  0  0  0  0  0  0  0  0
   -7.5545   -0.1671   -0.3026 H   0  0  0  0  0  0  0  0  0  0  0  0
   -6.3181   -0.5088   -1.5080 H   0  0  0  0  0  0  0  0  0  0  0  0
   -5.8397    1.1604   -0.2152 C   0  0  0  0  0  0  0  0  0  0  0  0
   -6.0882    1.5064    0.7978 H   0  0  0  0  0  0  0  0  0  0  0  0
   -6.2516    1.9008   -0.9098 H   0  0  0  0  0  0  0  0  0  0  0  0
   -4.3123    1.1146   -0.3727 C   0  0  0  0  0  0  0  0  0  0  0  0
   -3.8739    2.0988   -0.1620 H   0  0  0  0  0  0  0  0  0  0  0  0
   -4.0508    0.8543   -1.4064 H   0  0  0  0  0  0  0  0  0  0  0  0
    1.3227    4.3100    0.1470 C   0  0  0  0  0  0  0  0  0  0  0  0
    1.5299    5.3758    0.1666 H   0  0  0  0  0  0  0  0  0  0  0  0
    1.0855   -2.6212   -0.1205 Br  0  0  0  0  0  0  0  0  0  0  0  0
  1 42  1  0  0  0  0
  2  9  1  0  0  0  0
  2  1  9  0  0  0  0
  3  2  2  0  0  0  0
  4 10  1  0  0  0  0
  4 13  1  1  0  0  0
  4  1  9  0  0  0  0
  5 20  1  0  0  0  0
  6 33  1  6  0  0  0
  6  1  9  0  0  0  0
  7  8  1  0  0  0  0
  9  7  2  0  0  0  0
  9 10  1  0  0  0  0
 10 11  1  0  0  0  0
 10 12  1  0  0  0  0
 13 16  1  0  0  0  0
 13 14  1  0  0  0  0
 15 13  1  0  0  0  0
 17  4  1  0  0  0  0
 17 19  1  0  0  0  0
 18 17  1  0  0  0  0
 20 22  1  0  0  0  0
 20 17  1  0  0  0  0
 21 20  1  0  0  0  0
 23  5  1  0  0  0  0
 23 26  1  0  0  0  0
 24 23  1  0  0  0  0
 25 23  1  0  0  0  0
 27 29  1  0  0  0  0
 27  5  1  0  0  0  0
 28 27  1  0  0  0  0
 30  6  1  0  0  0  0
 30 27  1  0  0  0  0
 31 30  1  0  0  0  0
 32 30  1  0  0  0  0
 33 35  1  0  0  0  0
 33 34  1  0  0  0  0
 36 33  1  0  0  0  0
 37  3  1  0  0  0  0
 37 62  2  0  0  0  0
 38 37  1  0  0  0  0
 39  6  1  0  0  0  0
 39  3  1  0  0  0  0
 40 39  1  0  0  0  0
 41 39  1  0  0  0  0
 43 44  2  0  0  0  0
 43  1  9  0  0  0  0
 44 48  1  0  0  0  0
 44 42  1  0  0  0  0
 45 50  1  0  0  0  0
 45 48  1  0  0  0  0
 45 47  1  0  0  0  0
 46 45  1  0  0  0  0
 48 49  1  0  0  0  0
 50 51  1  0  0  0  0
 52 50  1  0  0  0  0
 53 54  1  0  0  0  0
 53 56  1  0  0  0  0
 53 50  1  0  0  0  0
 55 53  1  0  0  0  0
 56 57  1  0  0  0  0
 58 56  1  0  0  0  0
 59 56  1  0  0  0  0
 59 60  1  0  0  0  0
 59 48  1  0  0  0  0
 61 59  1  0  0  0  0
 62 63  1  0  0  0  0
 62  7  1  0  0  0  0
 64  1  1  0  0  0  0
M  CHG  1   1   2
M  END
$$$$
