
 OpenBabel02052520073D

 48 52  0  0  0  0  0  0  0  0999 V2000
   -1.0814    0.0444   -0.5068 Fe  0  1  0  0  0  0  0  0  0  0  0  0
    0.8182   -0.1202   -0.4763 N   0  0  0  0  0  0  0  0  0  0  0  0
    1.6035    1.0033   -0.3991 C   0  0  0  0  0  0  0  0  0  0  0  0
   -0.9886   -2.0673   -0.3273 N   0  0  2  0  0  0  0  0  0  0  0  0
   -1.4320    0.0923    1.6488 N   0  0  2  0  0  0  0  0  0  0  0  0
   -0.6188    2.1096   -0.3621 N   0  0  2  0  0  0  0  0  0  0  0  0
    2.7313   -1.5225   -0.1650 C   0  0  0  0  0  0  0  0  0  0  0  0
    3.1931   -2.5030   -0.0991 H   0  0  0  0  0  0  0  0  0  0  0  0
    1.3907   -1.3699   -0.3841 C   0  0  0  0  0  0  0  0  0  0  0  0
    0.4263   -2.4780   -0.6698 C   0  0  0  0  0  0  0  0  0  0  0  0
    0.4538   -2.6873   -1.7450 H   0  0  0  0  0  0  0  0  0  0  0  0
    0.6731   -3.4096   -0.1497 H   0  0  0  0  0  0  0  0  0  0  0  0
   -1.9331   -2.8166   -1.2287 C   0  0  0  0  0  0  0  0  0  0  0  0
   -1.7447   -3.8918   -1.1147 H   0  0  0  0  0  0  0  0  0  0  0  0
   -2.9632   -2.5962   -0.9539 H   0  0  0  0  0  0  0  0  0  0  0  0
   -1.7573   -2.5229   -2.2649 H   0  0  0  0  0  0  0  0  0  0  0  0
   -1.3412   -2.3227    1.1273 C   0  0  0  0  0  0  0  0  0  0  0  0
   -2.4267   -2.4112    1.1754 H   0  0  0  0  0  0  0  0  0  0  0  0
   -0.9227   -3.2909    1.4241 H   0  0  0  0  0  0  0  0  0  0  0  0
   -0.8451   -1.2202    2.0605 C   0  0  0  0  0  0  0  0  0  0  0  0
    0.2430   -1.1362    2.0378 H   0  0  0  0  0  0  0  0  0  0  0  0
   -1.1426   -1.4565    3.0899 H   0  0  0  0  0  0  0  0  0  0  0  0
   -2.8694    0.2137    2.0451 C   0  0  0  0  0  0  0  0  0  0  0  0
   -2.9357    0.2275    3.1397 H   0  0  0  0  0  0  0  0  0  0  0  0
   -3.2991    1.1298    1.6434 H   0  0  0  0  0  0  0  0  0  0  0  0
   -3.4436   -0.6258    1.6571 H   0  0  0  0  0  0  0  0  0  0  0  0
   -0.6390    1.2982    2.0404 C   0  0  0  0  0  0  0  0  0  0  0  0
   -0.8978    1.6005    3.0627 H   0  0  0  0  0  0  0  0  0  0  0  0
    0.4206    1.0351    2.0273 H   0  0  0  0  0  0  0  0  0  0  0  0
   -0.9426    2.4477    1.0818 C   0  0  0  0  0  0  0  0  0  0  0  0
   -0.3804    3.3438    1.3677 H   0  0  0  0  0  0  0  0  0  0  0  0
   -2.0010    2.7073    1.1126 H   0  0  0  0  0  0  0  0  0  0  0  0
   -1.4071    2.9949   -1.2908 C   0  0  0  0  0  0  0  0  0  0  0  0
   -1.2724    2.6545   -2.3189 H   0  0  0  0  0  0  0  0  0  0  0  0
   -2.4631    2.9615   -1.0287 H   0  0  0  0  0  0  0  0  0  0  0  0
   -1.0368    4.0233   -1.1921 H   0  0  0  0  0  0  0  0  0  0  0  0
    3.5634   -0.3617   -0.0596 C   0  0  0  0  0  0  0  0  0  0  0  0
    2.9580    0.9274   -0.1863 C   0  0  0  0  0  0  0  0  0  0  0  0
    3.5537    1.8322   -0.1415 H   0  0  0  0  0  0  0  0  0  0  0  0
    0.8497    2.2657   -0.6849 C   0  0  0  0  0  0  0  0  0  0  0  0
    1.2500    3.1363   -0.1546 H   0  0  0  0  0  0  0  0  0  0  0  0
    0.9300    2.4738   -1.7578 H   0  0  0  0  0  0  0  0  0  0  0  0
    4.8224   -0.5875    0.1356 O   0  0  0  0  0  0  0  0  0  0  0  0
    5.8329    0.4743    0.2323 C   0  0  0  0  0  0  0  0  0  0  0  0
    6.7691   -0.0572    0.3901 H   0  0  0  0  0  0  0  0  0  0  0  0
    5.8580    1.0317   -0.7076 H   0  0  0  0  0  0  0  0  0  0  0  0
    5.6024    1.1153    1.0870 H   0  0  0  0  0  0  0  0  0  0  0  0
   -3.0261    0.2093   -1.2935 Cl  0  0  0  0  0  0  0  0  0  0  0  0
  2  3  2  0  0  0  0
  2  9  1  0  0  0  0
  2  1  9  0  0  0  0
  3 38  1  0  0  0  0
  4 13  1  6  0  0  0
  4 17  1  0  0  0  0
  4  1  9  0  0  0  0
  5 27  1  0  0  0  0
  5 23  1  1  0  0  0
  5 20  1  0  0  0  0
  5  1  9  0  0  0  0
  6 33  1  6  0  0  0
  6 30  1  0  0  0  0
  6  1  9  0  0  0  0
  7  8  1  0  0  0  0
  7 37  1  0  0  0  0
  9  7  2  0  0  0  0
 10  9  1  0  0  0  0
 10  4  1  0  0  0  0
 10 12  1  0  0  0  0
 11 10  1  0  0  0  0
 13 14  1  0  0  0  0
 13 15  1  0  0  0  0
 16 13  1  0  0  0  0
 17 18  1  0  0  0  0
 17 19  1  0  0  0  0
 17 20  1  0  0  0  0
 20 22  1  0  0  0  0
 21 20  1  0  0  0  0
 23 24  1  0  0  0  0
 25 23  1  0  0  0  0
 26 23  1  0  0  0  0
 27 28  1  0  0  0  0
 29 27  1  0  0  0  0
 30 32  1  0  0  0  0
 30 31  1  0  0  0  0
 30 27  1  0  0  0  0
 33 36  1  0  0  0  0
 33 35  1  0  0  0  0
 34 33  1  0  0  0  0
 37 43  1  0  0  0  0
 38 39  1  0  0  0  0
 38 37  2  0  0  0  0
 40  3  1  0  0  0  0
 40  6  1  0  0  0  0
 40 41  1  0  0  0  0
 42 40  1  0  0  0  0
 43 44  1  0  0  0  0
 44 45  1  0  0  0  0
 44 47  1  0  0  0  0
 46 44  1  0  0  0  0
 48  1  1  0  0  0  0
M  CHG  1   1   3
M  END
$$$$
