
 OpenBabel02052520073D

 57 61  0  0  0  0  0  0  0  0999 V2000
    0.7297    0.0198    0.0435 Fe  0  2  0  0  0  0  0  0  0  0  0  0
   -1.1725    0.0543   -0.1242 N   0  0  0  0  0  0  0  0  0  0  0  0
   -1.9663    0.1548    0.9667 C   0  0  0  0  0  0  0  0  0  0  0  0
    0.5709   -0.6449   -2.1133 N   0  0  1  0  0  0  0  0  0  0  0  0
    0.6131   -2.2296    0.2826 N   0  0  1  0  0  0  0  0  0  0  0  0
    0.1653   -0.1098    2.2222 N   0  0  1  0  0  0  0  0  0  0  0  0
   -3.0672    0.0131   -1.5664 C   0  0  0  0  0  0  0  0  0  0  0  0
   -3.5034   -0.0296   -2.5582 H   0  0  0  0  0  0  0  0  0  0  0  0
   -1.7075    0.0050   -1.3780 C   0  0  0  0  0  0  0  0  0  0  0  0
   -0.6981    0.0334   -2.4971 C   0  0  0  0  0  0  0  0  0  0  0  0
   -0.4532    1.0815   -2.6927 H   0  0  0  0  0  0  0  0  0  0  0  0
   -1.1085   -0.3944   -3.4198 H   0  0  0  0  0  0  0  0  0  0  0  0
    1.7012   -0.1248   -2.9214 C   0  0  0  0  0  0  0  0  0  0  0  0
    1.5376   -0.3083   -3.9912 H   0  0  0  0  0  0  0  0  0  0  0  0
    2.6211   -0.6217   -2.6090 H   0  0  0  0  0  0  0  0  0  0  0  0
    1.7980    0.9460   -2.7374 H   0  0  0  0  0  0  0  0  0  0  0  0
    0.4743   -2.1314   -2.1883 C   0  0  0  0  0  0  0  0  0  0  0  0
    1.4801   -2.5194   -2.3557 H   0  0  0  0  0  0  0  0  0  0  0  0
   -0.1285   -2.4324   -3.0544 H   0  0  0  0  0  0  0  0  0  0  0  0
   -0.1201   -2.7273   -0.9137 C   0  0  0  0  0  0  0  0  0  0  0  0
   -1.1696   -2.4498   -0.8102 H   0  0  0  0  0  0  0  0  0  0  0  0
   -0.0729   -3.8230   -0.9638 H   0  0  0  0  0  0  0  0  0  0  0  0
    1.9630   -2.8541    0.3506 C   0  0  0  0  0  0  0  0  0  0  0  0
    1.8688   -3.9470    0.3673 H   0  0  0  0  0  0  0  0  0  0  0  0
    2.4860   -2.5245    1.2459 H   0  0  0  0  0  0  0  0  0  0  0  0
    2.5604   -2.5567   -0.5099 H   0  0  0  0  0  0  0  0  0  0  0  0
   -0.1323   -2.4808    1.5484 C   0  0  0  0  0  0  0  0  0  0  0  0
    0.0017   -3.5208    1.8714 H   0  0  0  0  0  0  0  0  0  0  0  0
   -1.1972   -2.3345    1.3527 H   0  0  0  0  0  0  0  0  0  0  0  0
    0.3492   -1.5257    2.6355 C   0  0  0  0  0  0  0  0  0  0  0  0
   -0.1807   -1.7263    3.5760 H   0  0  0  0  0  0  0  0  0  0  0  0
    1.4131   -1.6737    2.8303 H   0  0  0  0  0  0  0  0  0  0  0  0
    1.0249    0.7955    3.0272 C   0  0  0  0  0  0  0  0  0  0  0  0
    0.8955    1.8151    2.6639 H   0  0  0  0  0  0  0  0  0  0  0  0
    2.0667    0.4940    2.9035 H   0  0  0  0  0  0  0  0  0  0  0  0
    0.7596    0.7462    4.0911 H   0  0  0  0  0  0  0  0  0  0  0  0
   -3.9239    0.0983   -0.4386 C   0  0  0  0  0  0  0  0  0  0  0  0
   -3.3462    0.1635    0.8471 C   0  0  0  0  0  0  0  0  0  0  0  0
   -3.9560    0.2361    1.7391 H   0  0  0  0  0  0  0  0  0  0  0  0
   -1.2643    0.3119    2.2900 C   0  0  0  0  0  0  0  0  0  0  0  0
   -1.7924   -0.2321    3.0826 H   0  0  0  0  0  0  0  0  0  0  0  0
   -1.2934    1.3756    2.5329 H   0  0  0  0  0  0  0  0  0  0  0  0
   -5.2158    0.1052   -0.6984 O   0  0  0  0  0  0  0  0  0  0  0  0
   -6.1846    0.2197    0.3707 C   0  0  0  0  0  0  0  0  0  0  0  0
   -7.1539    0.2149   -0.1247 H   0  0  0  0  0  0  0  0  0  0  0  0
   -6.0429    1.1611    0.9102 H   0  0  0  0  0  0  0  0  0  0  0  0
   -6.1052   -0.6365    1.0476 H   0  0  0  0  0  0  0  0  0  0  0  0
    0.8944    1.7467   -0.5613 O   0  0  0  0  0  0  0  0  0  0  0  0
   -0.4531    2.7950    0.9120 O   0  0  0  0  0  0  0  0  0  0  0  0
    0.2828    2.8396   -0.0548 C   0  0  0  0  0  0  0  0  0  0  0  0
    0.6332    4.0912   -0.8238 C   0  0  0  0  0  0  0  0  0  0  0  0
    1.7087    4.2823   -0.7443 H   0  0  0  0  0  0  0  0  0  0  0  0
    0.4016    3.9641   -1.8861 H   0  0  0  0  0  0  0  0  0  0  0  0
    0.0761    4.9353   -0.4153 H   0  0  0  0  0  0  0  0  0  0  0  0
    2.6434   -0.0436    0.3484 N   0  0  0  0  0  0  0  0  0  0  0  0
    3.7764    0.2689    0.1669 C   0  0  0  0  0  0  0  0  0  0  0  0
    5.3250    0.6687   -0.0330 S   0  0  0  0  0  0  0  0  0  0  0  0
  1 55  1  0  0  0  0
  2  3  1  0  0  0  0
  2  1  9  0  0  0  0
  3 40  1  0  0  0  0
  4 13  1  6  0  0  0
  4  1  9  0  0  0  0
  5 23  1  1  0  0  0
  5 27  1  0  0  0  0
  5  1  9  0  0  0  0
  6 40  1  0  0  0  0
  6 30  1  0  0  0  0
  6 33  1  1  0  0  0
  6  1  9  0  0  0  0
  7  9  1  0  0  0  0
  7 37  2  0  0  0  0
  8  7  1  0  0  0  0
  9  2  2  0  0  0  0
 10  4  1  0  0  0  0
 10  9  1  0  0  0  0
 11 10  1  0  0  0  0
 12 10  1  0  0  0  0
 13 16  1  0  0  0  0
 13 15  1  0  0  0  0
 14 13  1  0  0  0  0
 17  4  1  0  0  0  0
 17 20  1  0  0  0  0
 18 17  1  0  0  0  0
 19 17  1  0  0  0  0
 20 21  1  0  0  0  0
 20  5  1  0  0  0  0
 22 20  1  0  0  0  0
 23 24  1  0  0  0  0
 23 25  1  0  0  0  0
 26 23  1  0  0  0  0
 27 28  1  0  0  0  0
 27 30  1  0  0  0  0
 29 27  1  0  0  0  0
 30 32  1  0  0  0  0
 30 31  1  0  0  0  0
 33 36  1  0  0  0  0
 34 33  1  0  0  0  0
 35 33  1  0  0  0  0
 37 38  1  0  0  0  0
 38  3  2  0  0  0  0
 38 39  1  0  0  0  0
 40 42  1  0  0  0  0
 40 41  1  0  0  0  0
 43 37  1  0  0  0  0
 43 44  1  0  0  0  0
 44 46  1  0  0  0  0
 44 47  1  0  0  0  0
 45 44  1  0  0  0  0
 48 50  1  0  0  0  0
 48  1  1  0  0  0  0
 50 49  2  0  0  0  0
 51 52  1  0  0  0  0
 51 54  1  0  0  0  0
 51 50  1  0  0  0  0
 53 51  1  0  0  0  0
 56 55  2  0  0  0  0
 57 56  2  0  0  0  0
M  CHG  1   1   2
M  END
$$$$
