
 OpenBabel02052520073D

 65 70  0  0  0  0  0  0  0  0999 V2000
   -0.6781   -0.7760   -0.0801 Fe  0  2  0  0  0  0  0  0  0  0  0  0
   -1.0088    1.2103    0.0767 N   0  0  0  0  0  0  0  0  0  0  0  0
   -0.6824    1.8145    1.2434 C   0  0  0  0  0  0  0  0  0  0  0  0
   -1.6894   -0.3255   -2.0531 N   0  0  1  0  0  0  0  0  0  0  0  0
   -2.7816   -1.1135    0.5409 N   0  0  1  0  0  0  0  0  0  0  0  0
   -0.4916   -0.4791    2.1571 N   0  0  1  0  0  0  0  0  0  0  0  0
   -1.7509    3.2729   -0.8427 C   0  0  0  0  0  0  0  0  0  0  0  0
   -2.1623    3.8251   -1.6814 H   0  0  0  0  0  0  0  0  0  0  0  0
   -1.5097    1.9055   -0.9634 C   0  0  0  0  0  0  0  0  0  0  0  0
   -1.7140    1.1507   -2.2505 C   0  0  0  0  0  0  0  0  0  0  0  0
   -0.8863    1.4235   -2.9089 H   0  0  0  0  0  0  0  0  0  0  0  0
   -2.6456    1.4581   -2.7407 H   0  0  0  0  0  0  0  0  0  0  0  0
   -0.9332   -1.0070   -3.1391 C   0  0  0  0  0  0  0  0  0  0  0  0
   -1.4267   -0.8549   -4.1069 H   0  0  0  0  0  0  0  0  0  0  0  0
   -0.8861   -2.0735   -2.9154 H   0  0  0  0  0  0  0  0  0  0  0  0
    0.0748   -0.5944   -3.1764 H   0  0  0  0  0  0  0  0  0  0  0  0
   -3.0541   -0.9003   -1.9079 C   0  0  0  0  0  0  0  0  0  0  0  0
   -2.9667   -1.9816   -2.0269 H   0  0  0  0  0  0  0  0  0  0  0  0
   -3.7110   -0.5343   -2.7073 H   0  0  0  0  0  0  0  0  0  0  0  0
   -3.6423   -0.5568   -0.5454 C   0  0  0  0  0  0  0  0  0  0  0  0
   -3.7049    0.5256   -0.4133 H   0  0  0  0  0  0  0  0  0  0  0  0
   -4.6589   -0.9583   -0.4586 H   0  0  0  0  0  0  0  0  0  0  0  0
   -3.0563   -2.5700    0.7205 C   0  0  0  0  0  0  0  0  0  0  0  0
   -4.0789   -2.6996    1.0937 H   0  0  0  0  0  0  0  0  0  0  0  0
   -2.3460   -3.0045    1.4200 H   0  0  0  0  0  0  0  0  0  0  0  0
   -2.9388   -3.0936   -0.2251 H   0  0  0  0  0  0  0  0  0  0  0  0
   -2.9654   -0.3870    1.8314 C   0  0  0  0  0  0  0  0  0  0  0  0
   -3.9217   -0.6723    2.2875 H   0  0  0  0  0  0  0  0  0  0  0  0
   -3.0093    0.6810    1.6171 H   0  0  0  0  0  0  0  0  0  0  0  0
   -1.8223   -0.7034    2.7929 C   0  0  0  0  0  0  0  0  0  0  0  0
   -1.9235   -0.0954    3.7001 H   0  0  0  0  0  0  0  0  0  0  0  0
   -1.8677   -1.7475    3.1053 H   0  0  0  0  0  0  0  0  0  0  0  0
    0.5298   -1.4267    2.6766 C   0  0  0  0  0  0  0  0  0  0  0  0
    1.4568   -1.2821    2.1211 H   0  0  0  0  0  0  0  0  0  0  0  0
    0.1796   -2.4468    2.5128 H   0  0  0  0  0  0  0  0  0  0  0  0
    0.7063   -1.2648    3.7469 H   0  0  0  0  0  0  0  0  0  0  0  0
   -0.8966    3.1747    1.4161 C   0  0  0  0  0  0  0  0  0  0  0  0
   -0.6418    3.6504    2.3574 H   0  0  0  0  0  0  0  0  0  0  0  0
   -0.0224    0.9262    2.2680 C   0  0  0  0  0  0  0  0  0  0  0  0
   -0.1692    1.3121    3.2842 H   0  0  0  0  0  0  0  0  0  0  0  0
    1.0536    0.9291    2.0659 H   0  0  0  0  0  0  0  0  0  0  0  0
    1.2302    1.1319   -1.8545 O   0  0  0  0  0  0  0  0  0  0  0  0
    1.0971   -0.5127   -0.3117 O   0  0  0  0  0  0  0  0  0  0  0  0
    1.7853    0.3891   -1.0760 C   0  0  0  0  0  0  0  0  0  0  0  0
    3.8608   -1.0790   -1.0670 C   0  0  0  0  0  0  0  0  0  0  0  0
    3.3840   -1.7864   -0.3743 H   0  0  0  0  0  0  0  0  0  0  0  0
    3.6281   -1.4088   -2.0870 H   0  0  0  0  0  0  0  0  0  0  0  0
    3.2815    0.3309   -0.8193 C   0  0  0  0  0  0  0  0  0  0  0  0
    3.7112    1.0333   -1.5428 H   0  0  0  0  0  0  0  0  0  0  0  0
    5.3822   -1.0748   -0.8384 C   0  0  0  0  0  0  0  0  0  0  0  0
    5.8579   -0.4350   -1.5939 H   0  0  0  0  0  0  0  0  0  0  0  0
    5.7730   -2.0863   -0.9932 H   0  0  0  0  0  0  0  0  0  0  0  0
    5.7378   -0.5663    0.5665 C   0  0  0  0  0  0  0  0  0  0  0  0
    6.8255   -0.5310    0.6884 H   0  0  0  0  0  0  0  0  0  0  0  0
    5.3604   -1.2756    1.3178 H   0  0  0  0  0  0  0  0  0  0  0  0
    5.1364    0.8217    0.8303 C   0  0  0  0  0  0  0  0  0  0  0  0
    5.5942    1.5591    0.1576 H   0  0  0  0  0  0  0  0  0  0  0  0
    5.3537    1.1510    1.8527 H   0  0  0  0  0  0  0  0  0  0  0  0
    3.6135    0.8198    0.6097 C   0  0  0  0  0  0  0  0  0  0  0  0
    3.1989    1.8235    0.7740 H   0  0  0  0  0  0  0  0  0  0  0  0
    3.1457    0.1383    1.3351 H   0  0  0  0  0  0  0  0  0  0  0  0
   -1.4420    3.9108    0.3577 C   0  0  0  0  0  0  0  0  0  0  0  0
   -1.6214    4.9755    0.4712 H   0  0  0  0  0  0  0  0  0  0  0  0
   -0.5391   -2.5194   -0.2840 O   0  0  0  0  0  0  0  0  0  0  0  0
    0.3718   -2.7985   -0.5051 H   0  0  0  0  0  0  0  0  0  0  0  0
  2  3  1  0  0  0  0
  2  1  9  0  0  0  0
  3 37  2  0  0  0  0
  3 39  1  0  0  0  0
  4 13  1  6  0  0  0
  4 17  1  0  0  0  0
  4  1  9  0  0  0  0
  5 23  1  1  0  0  0
  5 27  1  0  0  0  0
  5  1  9  0  0  0  0
  6 39  1  0  0  0  0
  6 33  1  1  0  0  0
  6 30  1  0  0  0  0
  6  1  9  0  0  0  0
  7 62  2  0  0  0  0
  8  7  1  0  0  0  0
  9  7  1  0  0  0  0
  9  2  2  0  0  0  0
 10  4  1  0  0  0  0
 10  9  1  0  0  0  0
 11 10  1  0  0  0  0
 12 10  1  0  0  0  0
 13 15  1  0  0  0  0
 14 13  1  0  0  0  0
 16 13  1  0  0  0  0
 17 20  1  0  0  0  0
 18 17  1  0  0  0  0
 19 17  1  0  0  0  0
 20 22  1  0  0  0  0
 20 21  1  0  0  0  0
 20  5  1  0  0  0  0
 23 24  1  0  0  0  0
 23 25  1  0  0  0  0
 26 23  1  0  0  0  0
 27 28  1  0  0  0  0
 27 30  1  0  0  0  0
 29 27  1  0  0  0  0
 30 32  1  0  0  0  0
 30 31  1  0  0  0  0
 33 36  1  0  0  0  0
 34 33  1  0  0  0  0
 35 33  1  0  0  0  0
 37 38  1  0  0  0  0
 39 40  1  0  0  0  0
 41 39  1  0  0  0  0
 42 44  2  0  0  0  0
 43  1  1  0  0  0  0
 44 48  1  0  0  0  0
 44 43  1  0  0  0  0
 45 50  1  0  0  0  0
 45 48  1  0  0  0  0
 45 46  1  0  0  0  0
 47 45  1  0  0  0  0
 48 59  1  0  0  0  0
 49 48  1  0  0  0  0
 50 53  1  0  0  0  0
 51 50  1  0  0  0  0
 52 50  1  0  0  0  0
 53 54  1  0  0  0  0
 53 56  1  0  0  0  0
 53 55  1  0  0  0  0
 56 58  1  0  0  0  0
 57 56  1  0  0  0  0
 59 60  1  0  0  0  0
 59 56  1  0  0  0  0
 59 61  1  0  0  0  0
 62 63  1  0  0  0  0
 62 37  1  0  0  0  0
 64  1  1  0  0  0  0
 65 64  1  0  0  0  0
M  CHG  1   1   2
M  END
$$$$
