
 OpenBabel02052520073D

 64 69  0  0  0  0  0  0  0  0999 V2000
   -0.2548   -0.5247    0.0633 Fe  0  2  0  0  0  0  0  0  0  0  0  0
   -0.9899    1.2110   -0.4226 N   0  0  0  0  0  0  0  0  0  0  0  0
   -1.1335    2.1470    0.5353 C   0  0  0  0  0  0  0  0  0  0  0  0
   -1.4309   -1.0739   -1.7446 N   0  0  1  0  0  0  0  0  0  0  0  0
   -3.4811   -1.0051    0.6366 N   0  0  0  0  0  0  0  0  0  0  0  0
   -0.9633    0.2085    2.0611 N   0  0  1  0  0  0  0  0  0  0  0  0
   -1.9536    2.6265   -2.0658 C   0  0  0  0  0  0  0  0  0  0  0  0
   -2.2935    2.7864   -3.0838 H   0  0  0  0  0  0  0  0  0  0  0  0
   -1.4171    1.3995   -1.6860 C   0  0  0  0  0  0  0  0  0  0  0  0
   -1.2622    0.1812   -2.5620 C   0  0  0  0  0  0  0  0  0  0  0  0
   -0.2466    0.1715   -2.9636 H   0  0  0  0  0  0  0  0  0  0  0  0
   -1.9572    0.2008   -3.4094 H   0  0  0  0  0  0  0  0  0  0  0  0
   -0.6942   -2.2204   -2.3820 C   0  0  0  0  0  0  0  0  0  0  0  0
   -1.1946   -2.5243   -3.3089 H   0  0  0  0  0  0  0  0  0  0  0  0
   -0.6803   -3.0419   -1.6646 H   0  0  0  0  0  0  0  0  0  0  0  0
    0.3292   -1.9294   -2.5951 H   0  0  0  0  0  0  0  0  0  0  0  0
   -2.8555   -1.5102   -1.7098 C   0  0  0  0  0  0  0  0  0  0  0  0
   -2.8653   -2.5673   -1.4423 H   0  0  0  0  0  0  0  0  0  0  0  0
   -3.2870   -1.4423   -2.7170 H   0  0  0  0  0  0  0  0  0  0  0  0
   -3.7686   -0.7336   -0.7639 C   0  0  0  0  0  0  0  0  0  0  0  0
   -3.7291    0.3432   -0.9306 H   0  0  0  0  0  0  0  0  0  0  0  0
   -4.8039   -1.0652   -0.9474 H   0  0  0  0  0  0  0  0  0  0  0  0
   -3.3400   -2.3789    1.0887 C   0  0  0  0  0  0  0  0  0  0  0  0
   -3.9051   -3.0490    0.4377 H   0  0  0  0  0  0  0  0  0  0  0  0
   -3.6949   -2.4754    2.1167 H   0  0  0  0  0  0  0  0  0  0  0  0
   -2.2655   -2.6400    1.0428 H   0  0  0  0  0  0  0  0  0  0  0  0
   -3.4767    0.0788    1.6078 C   0  0  0  0  0  0  0  0  0  0  0  0
   -4.4220    0.0069    2.1708 H   0  0  0  0  0  0  0  0  0  0  0  0
   -3.4778    1.0303    1.0752 H   0  0  0  0  0  0  0  0  0  0  0  0
   -2.3280   -0.0365    2.6069 C   0  0  0  0  0  0  0  0  0  0  0  0
   -2.5305    0.6646    3.4273 H   0  0  0  0  0  0  0  0  0  0  0  0
   -2.3277   -1.0333    3.0491 H   0  0  0  0  0  0  0  0  0  0  0  0
   -0.0295   -0.3916    3.0756 C   0  0  0  0  0  0  0  0  0  0  0  0
    0.9943   -0.1174    2.8437 H   0  0  0  0  0  0  0  0  0  0  0  0
   -0.1222   -1.4763    3.0069 H   0  0  0  0  0  0  0  0  0  0  0  0
   -0.2882   -0.0441    4.0828 H   0  0  0  0  0  0  0  0  0  0  0  0
   -1.6618    3.3951    0.2176 C   0  0  0  0  0  0  0  0  0  0  0  0
   -1.7740    4.1554    0.9836 H   0  0  0  0  0  0  0  0  0  0  0  0
   -0.6943    1.6823    1.9016 C   0  0  0  0  0  0  0  0  0  0  0  0
   -1.1711    2.2636    2.6993 H   0  0  0  0  0  0  0  0  0  0  0  0
    0.3855    1.8247    1.9835 H   0  0  0  0  0  0  0  0  0  0  0  0
    1.1983   -0.5194   -1.2443 O   0  0  0  0  0  0  0  0  0  0  0  0
    1.4472    0.1279    0.7769 O   0  0  0  0  0  0  0  0  0  0  0  0
    2.0246   -0.1121   -0.3460 C   0  0  0  0  0  0  0  0  0  0  0  0
    4.1545   -1.3093   -0.0413 C   0  0  0  0  0  0  0  0  0  0  0  0
    3.9208   -1.4194    1.0259 H   0  0  0  0  0  0  0  0  0  0  0  0
    3.7303   -2.1742   -0.5642 H   0  0  0  0  0  0  0  0  0  0  0  0
    3.4853    0.0036   -0.5614 C   0  0  0  0  0  0  0  0  0  0  0  0
    3.6450    0.0639   -1.6452 H   0  0  0  0  0  0  0  0  0  0  0  0
    5.6758   -1.2386   -0.2424 C   0  0  0  0  0  0  0  0  0  0  0  0
    5.8963   -1.2185   -1.3185 H   0  0  0  0  0  0  0  0  0  0  0  0
    6.1278   -2.1542    0.1552 H   0  0  0  0  0  0  0  0  0  0  0  0
    6.2797    0.0004    0.4339 C   0  0  0  0  0  0  0  0  0  0  0  0
    7.3574    0.0425    0.2443 H   0  0  0  0  0  0  0  0  0  0  0  0
    6.1544   -0.0816    1.5230 H   0  0  0  0  0  0  0  0  0  0  0  0
    5.6078    1.2896   -0.0607 C   0  0  0  0  0  0  0  0  0  0  0  0
    5.8271    1.4341   -1.1278 H   0  0  0  0  0  0  0  0  0  0  0  0
    6.0141    2.1610    0.4640 H   0  0  0  0  0  0  0  0  0  0  0  0
    4.0850    1.2442    0.1398 C   0  0  0  0  0  0  0  0  0  0  0  0
    3.6173    2.1572   -0.2500 H   0  0  0  0  0  0  0  0  0  0  0  0
    3.8519    1.1896    1.2110 H   0  0  0  0  0  0  0  0  0  0  0  0
   -2.0524    3.6388   -1.1042 C   0  0  0  0  0  0  0  0  0  0  0  0
   -2.4626    4.6063   -1.3775 H   0  0  0  0  0  0  0  0  0  0  0  0
   -0.3007   -2.1991    0.6325 F   0  0  0  0  0  0  0  0  0  0  0  0
  1 64  1  0  0  0  0
  1 43  1  0  0  0  0
  2  3  1  0  0  0  0
  2  1  9  0  0  0  0
  3 39  1  0  0  0  0
  4 13  1  6  0  0  0
  4 17  1  0  0  0  0
  4  1  9  0  0  0  0
  5 23  1  0  0  0  0
  5 27  1  0  0  0  0
  6 30  1  0  0  0  0
  6 33  1  1  0  0  0
  6  1  9  0  0  0  0
  7  9  1  0  0  0  0
  7 62  2  0  0  0  0
  8  7  1  0  0  0  0
  9  2  2  0  0  0  0
 10  4  1  0  0  0  0
 10  9  1  0  0  0  0
 11 10  1  0  0  0  0
 12 10  1  0  0  0  0
 13 15  1  0  0  0  0
 14 13  1  0  0  0  0
 16 13  1  0  0  0  0
 17 18  1  0  0  0  0
 17 20  1  0  0  0  0
 19 17  1  0  0  0  0
 20  5  1  0  0  0  0
 21 20  1  0  0  0  0
 22 20  1  0  0  0  0
 23 25  1  0  0  0  0
 24 23  1  0  0  0  0
 26 23  1  0  0  0  0
 27 28  1  0  0  0  0
 27 30  1  0  0  0  0
 29 27  1  0  0  0  0
 30 32  1  0  0  0  0
 30 31  1  0  0  0  0
 33 36  1  0  0  0  0
 34 33  1  0  0  0  0
 35 33  1  0  0  0  0
 37  3  2  0  0  0  0
 37 38  1  0  0  0  0
 39 41  1  0  0  0  0
 39  6  1  0  0  0  0
 39 40  1  0  0  0  0
 42 44  2  0  0  0  0
 42  1  9  0  0  0  0
 44 43  1  0  0  0  0
 45 46  1  0  0  0  0
 47 45  1  0  0  0  0
 48 44  1  0  0  0  0
 48 45  1  0  0  0  0
 48 59  1  0  0  0  0
 49 48  1  0  0  0  0
 50 45  1  0  0  0  0
 50 52  1  0  0  0  0
 50 53  1  0  0  0  0
 51 50  1  0  0  0  0
 53 55  1  0  0  0  0
 54 53  1  0  0  0  0
 56 59  1  0  0  0  0
 56 53  1  0  0  0  0
 56 58  1  0  0  0  0
 57 56  1  0  0  0  0
 59 61  1  0  0  0  0
 60 59  1  0  0  0  0
 62 37  1  0  0  0  0
 63 62  1  0  0  0  0
M  CHG  1   1   2
M  END
$$$$
