
 OpenBabel02052520073D

 50 52  0  0  0  0  0  0  0  0999 V2000
   -1.0663   -0.0240   -0.7781 Fe  0  1  2  0  0  0  0  0  0  0  0  0
    0.7820   -0.1469   -0.2634 N   0  0  0  0  0  2  0  0  0  0  0  0
    1.5616    0.9730   -0.2713 C   0  0  1  0  0  3  0  0  0  0  0  0
   -1.0647   -1.9782   -0.0168 N   0  0  2  0  0  0  0  0  0  0  0  0
   -1.5114    0.3475    2.3665 N   0  0  0  0  0  0  0  0  0  0  0  0
   -0.6756    2.0089   -0.4330 N   0  0  2  0  0  0  0  0  0  0  0  0
    2.6667   -1.5167    0.2456 C   0  0  0  0  0  0  0  0  0  0  0  0
    3.1145   -2.4857    0.4433 H   0  0  0  0  0  0  0  0  0  0  0  0
    1.3310   -1.3791   -0.0202 C   0  0  0  0  0  0  0  0  0  0  0  0
    0.3447   -2.5023   -0.1597 C   0  0  0  0  0  0  0  0  0  0  0  0
    0.4330   -2.9171   -1.1692 H   0  0  0  0  0  0  0  0  0  0  0  0
    0.5223   -3.3194    0.5481 H   0  0  0  0  0  0  0  0  0  0  0  0
   -2.0008   -2.8154   -0.8520 C   0  0  0  0  0  0  0  0  0  0  0  0
   -1.9877   -3.8492   -0.4873 H   0  0  0  0  0  0  0  0  0  0  0  0
   -3.0088   -2.4096   -0.7723 H   0  0  0  0  0  0  0  0  0  0  0  0
   -1.6759   -2.7875   -1.8914 H   0  0  0  0  0  0  0  0  0  0  0  0
   -1.5744   -1.9975    1.3956 C   0  0  0  0  0  0  0  0  0  0  0  0
   -2.6497   -1.8269    1.3415 H   0  0  0  0  0  0  0  0  0  0  0  0
   -1.4172   -3.0067    1.7945 H   0  0  0  0  0  0  0  0  0  0  0  0
   -0.9328   -1.0026    2.3957 C   0  0  0  0  0  0  0  0  0  0  0  0
    0.1476   -0.9281    2.2754 H   0  0  0  0  0  0  0  0  0  0  0  0
   -1.1385   -1.3986    3.4009 H   0  0  0  0  0  0  0  0  0  0  0  0
   -2.8580    0.5311    2.8850 C   0  0  0  0  0  0  0  0  0  0  0  0
   -2.7771    0.6407    3.9823 H   0  0  0  0  0  0  0  0  0  0  0  0
   -3.3141    1.4382    2.4857 H   0  0  0  0  0  0  0  0  0  0  0  0
   -3.4831   -0.3381    2.6756 H   0  0  0  0  0  0  0  0  0  0  0  0
   -0.6892    1.5420    2.1308 C   0  0  0  0  0  0  0  0  0  0  0  0
   -0.7998    2.1676    3.0285 H   0  0  0  0  0  0  0  0  0  0  0  0
    0.3554    1.2424    2.0527 H   0  0  0  0  0  0  0  0  0  0  0  0
   -1.1483    2.4130    0.9338 C   0  0  0  0  0  0  0  0  0  0  0  0
   -0.7981    3.4350    1.1214 H   0  0  0  0  0  0  0  0  0  0  0  0
   -2.2372    2.4395    0.8915 H   0  0  0  0  0  0  0  0  0  0  0  0
   -1.4492    2.8200   -1.4425 C   0  0  0  0  0  0  0  0  0  0  0  0
   -1.1526    2.5192   -2.4466 H   0  0  0  0  0  0  0  0  0  0  0  0
   -2.5143    2.6358   -1.3055 H   0  0  0  0  0  0  0  0  0  0  0  0
   -1.2355    3.8851   -1.2955 H   0  0  0  0  0  0  0  0  0  0  0  0
    3.5069   -0.3609    0.2301 C   0  0  0  0  0  0  0  0  0  0  0  0
    2.9129    0.9122   -0.0194 C   0  0  0  0  0  0  0  0  0  0  0  0
    3.5093    1.8174   -0.0295 H   0  0  0  0  0  0  0  0  0  0  0  0
    0.8046    2.2151   -0.6471 C   0  0  0  0  0  0  0  0  0  0  0  0
    1.1484    3.1057   -0.1094 H   0  0  0  0  0  0  0  0  0  0  0  0
    0.9537    2.3999   -1.7162 H   0  0  0  0  0  0  0  0  0  0  0  0
    4.7671   -0.5748    0.4593 O   0  0  0  0  0  0  0  0  0  0  0  0
    5.7713    0.4906    0.4324 C   0  0  0  0  0  0  0  0  0  0  0  0
    6.7128   -0.0166    0.6331 H   0  0  0  0  0  0  0  0  0  0  0  0
    5.7868    0.9507   -0.5589 H   0  0  0  0  0  0  0  0  0  0  0  0
    5.5531    1.2182    1.2186 H   0  0  0  0  0  0  0  0  0  0  0  0
   -2.7698    0.1769   -0.4410 O   0  0  0  0  0  0  0  0  0  0  0  0
   -3.3954    0.1551   -1.1968 H   0  0  0  0  0  0  0  0  0  0  0  0
   -0.8883   -0.2657   -2.9308 Cl  0  0  0  0  0  0  0  0  0  0  0  0
  1 50  1  6  0  0  0
  1 48  1  0  0  0  0
  2  9  1  0  0  0  0
  3  2  1  6  0  0  0
  3 38  1  0  0  0  0
  4 13  1  6  0  0  0
  4 17  1  0  0  0  0
  4  1  9  0  0  0  0
  5 20  1  0  0  0  0
  5 23  1  0  0  0  0
  6 33  1  6  0  0  0
  6 30  1  0  0  0  0
  6  1  9  0  0  0  0
  7  8  1  0  0  0  0
  9  7  2  0  0  0  0
 10  9  1  0  0  0  0
 10  4  1  0  0  0  0
 10 12  1  0  0  0  0
 11 10  1  0  0  0  0
 13 15  1  0  0  0  0
 13 14  1  0  0  0  0
 16 13  1  0  0  0  0
 17 19  1  0  0  0  0
 17 20  1  0  0  0  0
 18 17  1  0  0  0  0
 20 22  1  0  0  0  0
 21 20  1  0  0  0  0
 23 24  1  0  0  0  0
 25 23  1  0  0  0  0
 26 23  1  0  0  0  0
 27  5  1  0  0  0  0
 27 28  1  0  0  0  0
 29 27  1  0  0  0  0
 30 31  1  0  0  0  0
 30 27  1  0  0  0  0
 32 30  1  0  0  0  0
 33 35  1  0  0  0  0
 33 36  1  0  0  0  0
 34 33  1  0  0  0  0
 37  7  1  0  0  0  0
 37 43  1  0  0  0  0
 38 37  2  0  0  0  0
 39 38  1  0  0  0  0
 40  6  1  0  0  0  0
 40  3  1  0  0  0  0
 40 41  1  0  0  0  0
 42 40  1  0  0  0  0
 44 43  1  0  0  0  0
 44 45  1  0  0  0  0
 44 47  1  0  0  0  0
 46 44  1  0  0  0  0
 49 48  1  0  0  0  0
M  RAD  2   2   2   3   2
M  CHG  1   1   3
M  END
$$$$
