
 OpenBabel02052520073D

 66 72  0  0  0  0  0  0  0  0999 V2000
    0.5478    0.0483    0.0627 Fe  0  2  0  0  0  0  0  0  0  0  0  0
    2.6829    0.4699   -0.2828 N   0  0  0  0  0  0  0  0  0  0  0  0
    3.2293    0.2391   -1.4925 C   0  0  0  0  0  0  0  0  0  0  0  0
   -1.1506    0.0040    1.3855 O   0  0  0  0  0  0  0  0  0  0  0  0
    1.4627    0.4768    2.1691 N   0  0  1  0  0  0  0  0  0  0  0  0
    1.1473   -2.0006    0.5265 N   0  0  1  0  0  0  0  0  0  0  0  0
    0.9807   -0.6269   -2.1252 N   0  0  1  0  0  0  0  0  0  0  0  0
    4.8584    0.9339    0.6057 C   0  0  0  0  0  0  0  0  0  0  0  0
    5.4712    1.2133    1.4565 H   0  0  0  0  0  0  0  0  0  0  0  0
    3.4775    0.8239    0.7464 C   0  0  0  0  0  0  0  0  0  0  0  0
    2.7695    1.1653    2.0244 C   0  0  0  0  0  0  0  0  0  0  0  0
    2.5710    2.2429    2.0082 H   0  0  0  0  0  0  0  0  0  0  0  0
    3.4076    0.9746    2.8974 H   0  0  0  0  0  0  0  0  0  0  0  0
    0.6177    1.3087    3.0733 C   0  0  0  0  0  0  0  0  0  0  0  0
    1.1534    1.5102    4.0096 H   0  0  0  0  0  0  0  0  0  0  0  0
   -0.3153    0.7965    3.2876 H   0  0  0  0  0  0  0  0  0  0  0  0
    0.3925    2.2523    2.5723 H   0  0  0  0  0  0  0  0  0  0  0  0
    1.5950   -0.9038    2.7213 C   0  0  0  0  0  0  0  0  0  0  0  0
    0.6065   -1.1928    3.0810 H   0  0  0  0  0  0  0  0  0  0  0  0
    2.2716   -0.9057    3.5867 H   0  0  0  0  0  0  0  0  0  0  0  0
    2.0891   -1.9138    1.6874 C   0  0  0  0  0  0  0  0  0  0  0  0
    3.0727   -1.6322    1.3100 H   0  0  0  0  0  0  0  0  0  0  0  0
    2.1908   -2.8986    2.1600 H   0  0  0  0  0  0  0  0  0  0  0  0
   -0.0262   -2.8496    0.8851 C   0  0  0  0  0  0  0  0  0  0  0  0
    0.3068   -3.8667    1.1217 H   0  0  0  0  0  0  0  0  0  0  0  0
   -0.7266   -2.8764    0.0527 H   0  0  0  0  0  0  0  0  0  0  0  0
   -0.5378   -2.4213    1.7450 H   0  0  0  0  0  0  0  0  0  0  0  0
    1.8072   -2.5349   -0.7073 C   0  0  0  0  0  0  0  0  0  0  0  0
    1.8525   -3.6300   -0.6618 H   0  0  0  0  0  0  0  0  0  0  0  0
    2.8343   -2.1688   -0.7319 H   0  0  0  0  0  0  0  0  0  0  0  0
    1.0502   -2.1095   -1.9640 C   0  0  0  0  0  0  0  0  0  0  0  0
    1.5179   -2.5679   -2.8460 H   0  0  0  0  0  0  0  0  0  0  0  0
    0.0206   -2.4670   -1.9174 H   0  0  0  0  0  0  0  0  0  0  0  0
   -0.0741   -0.2698   -3.1164 C   0  0  0  0  0  0  0  0  0  0  0  0
   -0.2177    0.8124   -3.0994 H   0  0  0  0  0  0  0  0  0  0  0  0
   -1.0104   -0.7505   -2.8502 H   0  0  0  0  0  0  0  0  0  0  0  0
    0.2319   -0.5827   -4.1228 H   0  0  0  0  0  0  0  0  0  0  0  0
   -1.9329   -0.3186    0.4347 C   0  0  0  0  0  0  0  0  0  0  0  0
    4.6020    0.3289   -1.7089 C   0  0  0  0  0  0  0  0  0  0  0  0
    5.0115    0.1286   -2.6938 H   0  0  0  0  0  0  0  0  0  0  0  0
    2.2582   -0.0408   -2.6017 C   0  0  0  0  0  0  0  0  0  0  0  0
    2.7101   -0.6731   -3.3773 H   0  0  0  0  0  0  0  0  0  0  0  0
    2.0219    0.9185   -3.0755 H   0  0  0  0  0  0  0  0  0  0  0  0
   -1.3804   -0.5757   -0.6840 O   0  0  0  0  0  0  0  0  0  0  0  0
   -3.4284   -0.3340    0.6018 C   0  0  0  0  0  0  0  0  0  0  0  0
   -3.6440   -0.0857    1.6467 H   0  0  0  0  0  0  0  0  0  0  0  0
   -4.0703    0.7144   -0.3224 C   0  0  0  0  0  0  0  0  0  0  0  0
   -3.7816    0.5130   -1.3610 H   0  0  0  0  0  0  0  0  0  0  0  0
   -3.6727    1.7336   -0.0802 H   0  0  0  0  0  0  0  0  0  0  0  0
   -4.0045   -1.7428    0.2754 C   0  0  0  0  0  0  0  0  0  0  0  0
   -3.5613   -2.4851    0.9504 H   0  0  0  0  0  0  0  0  0  0  0  0
   -3.7145   -2.0091   -0.7488 H   0  0  0  0  0  0  0  0  0  0  0  0
   -5.5950    0.7472   -0.1696 C   0  0  0  0  0  0  0  0  0  0  0  0
   -6.0254    1.4933   -0.8450 H   0  0  0  0  0  0  0  0  0  0  0  0
   -5.8613    1.0375    0.8543 H   0  0  0  0  0  0  0  0  0  0  0  0
   -5.5339   -1.7276    0.4108 C   0  0  0  0  0  0  0  0  0  0  0  0
   -5.9232   -2.7189    0.1458 H   0  0  0  0  0  0  0  0  0  0  0  0
   -5.8066   -1.5528    1.4600 H   0  0  0  0  0  0  0  0  0  0  0  0
   -6.1713   -0.6574   -0.4783 C   0  0  0  0  0  0  0  0  0  0  0  0
   -5.9966   -0.8956   -1.5358 H   0  0  0  0  0  0  0  0  0  0  0  0
   -7.2573   -0.6269   -0.3306 H   0  0  0  0  0  0  0  0  0  0  0  0
    5.4293    0.6788   -0.6416 C   0  0  0  0  0  0  0  0  0  0  0  0
    6.5038    0.7501   -0.7792 H   0  0  0  0  0  0  0  0  0  0  0  0
    0.0238    2.0102   -0.4051 N   0  0  0  0  0  0  0  0  0  0  0  0
   -0.9308    2.7099   -0.4605 C   0  0  0  0  0  0  0  0  0  0  0  0
   -2.2668    3.6349   -0.5330 S   0  0  0  0  0  0  0  0  0  0  0  0
  1  4  1  0  0  0  0
  2 10  1  0  0  0  0
  2  1  9  0  0  0  0
  3  2  2  0  0  0  0
  5 18  1  0  0  0  0
  5 14  1  1  0  0  0
  5  1  9  0  0  0  0
  6 24  1  1  0  0  0
  6 21  1  0  0  0  0
  6  1  9  0  0  0  0
  7 34  1  6  0  0  0
  7 31  1  0  0  0  0
  7  1  9  0  0  0  0
  8 10  2  0  0  0  0
  8  9  1  0  0  0  0
 10 11  1  0  0  0  0
 11  5  1  0  0  0  0
 11 13  1  0  0  0  0
 12 11  1  0  0  0  0
 14 16  1  0  0  0  0
 14 15  1  0  0  0  0
 17 14  1  0  0  0  0
 18 19  1  0  0  0  0
 18 20  1  0  0  0  0
 21 23  1  0  0  0  0
 21 18  1  0  0  0  0
 22 21  1  0  0  0  0
 24 25  1  0  0  0  0
 24 27  1  0  0  0  0
 26 24  1  0  0  0  0
 28 29  1  0  0  0  0
 28  6  1  0  0  0  0
 30 28  1  0  0  0  0
 31 33  1  0  0  0  0
 31 28  1  0  0  0  0
 32 31  1  0  0  0  0
 34 35  1  0  0  0  0
 34 36  1  0  0  0  0
 37 34  1  0  0  0  0
 38 45  1  0  0  0  0
 38  4  1  0  0  0  0
 39  3  1  0  0  0  0
 39 62  2  0  0  0  0
 40 39  1  0  0  0  0
 41  7  1  0  0  0  0
 41  3  1  0  0  0  0
 42 41  1  0  0  0  0
 43 41  1  0  0  0  0
 44 38  2  0  0  0  0
 44  1  9  0  0  0  0
 45 46  1  0  0  0  0
 47 53  1  0  0  0  0
 47 49  1  0  0  0  0
 47 45  1  0  0  0  0
 48 47  1  0  0  0  0
 50 56  1  0  0  0  0
 50 45  1  0  0  0  0
 50 51  1  0  0  0  0
 52 50  1  0  0  0  0
 53 55  1  0  0  0  0
 54 53  1  0  0  0  0
 56 58  1  0  0  0  0
 57 56  1  0  0  0  0
 59 61  1  0  0  0  0
 59 53  1  0  0  0  0
 59 56  1  0  0  0  0
 60 59  1  0  0  0  0
 62  8  1  0  0  0  0
 63 62  1  0  0  0  0
 64  1  1  0  0  0  0
 65 64  2  0  0  0  0
 66 65  2  0  0  0  0
M  CHG  1   1   2
M  END
$$$$
