
 OpenBabel02052520073D

 48 52  0  0  0  0  0  0  0  0999 V2000
    0.9553    0.0263    0.5187 Fe  0  1  0  0  0  0  0  0  0  0  0  0
   -0.8281   -0.1159   -0.0509 N   0  0  0  0  0  0  0  0  0  0  0  0
   -1.5982    1.0230   -0.1306 C   0  0  0  0  0  0  0  0  0  0  0  0
    0.9515   -2.0292    0.2682 N   0  0  2  0  0  0  0  0  0  0  0  0
    2.4098    0.1509   -0.9617 N   0  0  2  0  0  0  0  0  0  0  0  0
    0.6185    2.0570    0.2838 N   0  0  2  0  0  0  0  0  0  0  0  0
   -2.7593   -1.5096   -0.1888 C   0  0  0  0  0  0  0  0  0  0  0  0
   -3.2362   -2.4841   -0.2373 H   0  0  0  0  0  0  0  0  0  0  0  0
   -1.4000   -1.3660   -0.1527 C   0  0  0  0  0  0  0  0  0  0  0  0
   -0.3862   -2.4655   -0.2993 C   0  0  0  0  0  0  0  0  0  0  0  0
   -0.7040   -3.3946    0.1824 H   0  0  0  0  0  0  0  0  0  0  0  0
   -0.2652   -2.6807   -1.3668 H   0  0  0  0  0  0  0  0  0  0  0  0
    1.1837   -2.6822    1.6040 C   0  0  0  0  0  0  0  0  0  0  0  0
    1.2699   -3.7662    1.4681 H   0  0  0  0  0  0  0  0  0  0  0  0
    2.0957   -2.2864    2.0490 H   0  0  0  0  0  0  0  0  0  0  0  0
    0.3358   -2.4599    2.2563 H   0  0  0  0  0  0  0  0  0  0  0  0
    2.0880   -2.2978   -0.6907 C   0  0  0  0  0  0  0  0  0  0  0  0
    2.9990   -2.4021   -0.1004 H   0  0  0  0  0  0  0  0  0  0  0  0
    1.9290   -3.2494   -1.2098 H   0  0  0  0  0  0  0  0  0  0  0  0
    2.1991   -1.1494   -1.6959 C   0  0  0  0  0  0  0  0  0  0  0  0
    1.2886   -1.0501   -2.2937 H   0  0  0  0  0  0  0  0  0  0  0  0
    3.0421   -1.3135   -2.3793 H   0  0  0  0  0  0  0  0  0  0  0  0
    3.7897    0.2661   -0.3949 C   0  0  0  0  0  0  0  0  0  0  0  0
    4.4905    0.3315   -1.2379 H   0  0  0  0  0  0  0  0  0  0  0  0
    3.8767    1.1550    0.2253 H   0  0  0  0  0  0  0  0  0  0  0  0
    4.0280   -0.6026    0.2142 H   0  0  0  0  0  0  0  0  0  0  0  0
    1.9835    1.4003   -1.6901 C   0  0  0  0  0  0  0  0  0  0  0  0
    2.7840    1.7031   -2.3773 H   0  0  0  0  0  0  0  0  0  0  0  0
    1.0989    1.1534   -2.2841 H   0  0  0  0  0  0  0  0  0  0  0  0
    1.6893    2.5122   -0.6809 C   0  0  0  0  0  0  0  0  0  0  0  0
    1.3729    3.4259   -1.1959 H   0  0  0  0  0  0  0  0  0  0  0  0
    2.5739    2.7642   -0.0949 H   0  0  0  0  0  0  0  0  0  0  0  0
    0.7530    2.7314    1.6226 C   0  0  0  0  0  0  0  0  0  0  0  0
   -0.0425    2.3718    2.2797 H   0  0  0  0  0  0  0  0  0  0  0  0
    1.7198    2.4839    2.0591 H   0  0  0  0  0  0  0  0  0  0  0  0
    0.6640    3.8160    1.4939 H   0  0  0  0  0  0  0  0  0  0  0  0
   -3.5876   -0.3372   -0.1628 C   0  0  0  0  0  0  0  0  0  0  0  0
   -2.9679    0.9550   -0.1620 C   0  0  0  0  0  0  0  0  0  0  0  0
   -3.5621    1.8613   -0.1969 H   0  0  0  0  0  0  0  0  0  0  0  0
   -0.7753    2.2736   -0.2711 C   0  0  0  0  0  0  0  0  0  0  0  0
   -0.6997    2.5123   -1.3381 H   0  0  0  0  0  0  0  0  0  0  0  0
   -1.2360    3.1361    0.2192 H   0  0  0  0  0  0  0  0  0  0  0  0
   -4.8618   -0.5570   -0.1698 O   0  0  0  0  0  0  0  0  0  0  0  0
   -5.8800    0.5032   -0.1575 C   0  0  0  0  0  0  0  0  0  0  0  0
   -6.8265   -0.0328   -0.1317 H   0  0  0  0  0  0  0  0  0  0  0  0
   -5.7517    1.1134    0.7405 H   0  0  0  0  0  0  0  0  0  0  0  0
   -5.7913    1.0925   -1.0741 H   0  0  0  0  0  0  0  0  0  0  0  0
    2.0611    0.1102    1.7924 F   0  0  0  0  0  0  0  0  0  0  0  0
  1 48  1  0  0  0  0
  2  1  9  0  0  0  0
  3  2  1  0  0  0  0
  4 13  1  1  0  0  0
  4  1  9  0  0  0  0
  5 23  1  1  0  0  0
  5  1  9  0  0  0  0
  6 33  1  1  0  0  0
  6  1  9  0  0  0  0
  7 37  2  0  0  0  0
  7  9  1  0  0  0  0
  8  7  1  0  0  0  0
  9  2  2  0  0  0  0
 10  9  1  0  0  0  0
 10 11  1  0  0  0  0
 10  4  1  0  0  0  0
 12 10  1  0  0  0  0
 13 15  1  0  0  0  0
 13 16  1  0  0  0  0
 14 13  1  0  0  0  0
 17 18  1  0  0  0  0
 17  4  1  0  0  0  0
 19 17  1  0  0  0  0
 20  5  1  0  0  0  0
 20 17  1  0  0  0  0
 21 20  1  0  0  0  0
 22 20  1  0  0  0  0
 23 26  1  0  0  0  0
 23 25  1  0  0  0  0
 24 23  1  0  0  0  0
 27  5  1  0  0  0  0
 27 30  1  0  0  0  0
 28 27  1  0  0  0  0
 29 27  1  0  0  0  0
 30 32  1  0  0  0  0
 30  6  1  0  0  0  0
 31 30  1  0  0  0  0
 33 35  1  0  0  0  0
 33 34  1  0  0  0  0
 36 33  1  0  0  0  0
 37 38  1  0  0  0  0
 38  3  2  0  0  0  0
 39 38  1  0  0  0  0
 40  3  1  0  0  0  0
 40 42  1  0  0  0  0
 40  6  1  0  0  0  0
 41 40  1  0  0  0  0
 43 37  1  0  0  0  0
 43 44  1  0  0  0  0
 44 45  1  0  0  0  0
 44 46  1  0  0  0  0
 47 44  1  0  0  0  0
M  CHG  1   1   3
M  END
$$$$
