
 OpenBabel02052520073D

 52 56  0  0  0  0  0  0  0  0999 V2000
    0.6445    0.0038   -0.2971 Fe  0  1  0  0  0  0  0  0  0  0  0  0
   -1.2083    0.1009   -0.2784 N   0  0  0  0  0  0  0  0  0  0  0  0
   -1.9382   -1.0475   -0.3409 C   0  0  0  0  0  0  0  0  0  0  0  0
    0.5314    2.0744   -0.1161 N   0  0  2  0  0  0  0  0  0  0  0  0
    0.7470    0.0276    1.8141 N   0  0  2  0  0  0  0  0  0  0  0  0
    0.3120   -2.0373   -0.0608 N   0  0  2  0  0  0  0  0  0  0  0  0
   -3.1751    1.4350   -0.3623 C   0  0  0  0  0  0  0  0  0  0  0  0
   -3.6743    2.3964   -0.4288 H   0  0  0  0  0  0  0  0  0  0  0  0
   -1.8107    1.3245   -0.3729 C   0  0  0  0  0  0  0  0  0  0  0  0
   -0.8358    2.4310   -0.6407 C   0  0  0  0  0  0  0  0  0  0  0  0
   -0.7514    2.5302   -1.7279 H   0  0  0  0  0  0  0  0  0  0  0  0
   -1.1561    3.3975   -0.2388 H   0  0  0  0  0  0  0  0  0  0  0  0
    1.5602    2.8060   -0.9183 C   0  0  0  0  0  0  0  0  0  0  0  0
    1.3905    3.8861   -0.8395 H   0  0  0  0  0  0  0  0  0  0  0  0
    2.5521    2.5731   -0.5324 H   0  0  0  0  0  0  0  0  0  0  0  0
    1.4833    2.5002   -1.9619 H   0  0  0  0  0  0  0  0  0  0  0  0
    0.6706    2.4265    1.3478 C   0  0  0  0  0  0  0  0  0  0  0  0
    1.7328    2.5708    1.5476 H   0  0  0  0  0  0  0  0  0  0  0  0
    0.1757    3.3832    1.5457 H   0  0  0  0  0  0  0  0  0  0  0  0
    0.0981    1.3209    2.2171 C   0  0  0  0  0  0  0  0  0  0  0  0
   -0.9803    1.2244    2.0861 H   0  0  0  0  0  0  0  0  0  0  0  0
    0.2870    1.5269    3.2768 H   0  0  0  0  0  0  0  0  0  0  0  0
    2.1273   -0.0349    2.4051 C   0  0  0  0  0  0  0  0  0  0  0  0
    2.0467   -0.0139    3.4970 H   0  0  0  0  0  0  0  0  0  0  0  0
    2.6314   -0.9494    2.1012 H   0  0  0  0  0  0  0  0  0  0  0  0
    2.7229    0.8126    2.0742 H   0  0  0  0  0  0  0  0  0  0  0  0
   -0.0294   -1.1807    2.2521 C   0  0  0  0  0  0  0  0  0  0  0  0
    0.1419   -1.3775    3.3165 H   0  0  0  0  0  0  0  0  0  0  0  0
   -1.0928   -0.9764    2.1210 H   0  0  0  0  0  0  0  0  0  0  0  0
    0.4227   -2.3621    1.4116 C   0  0  0  0  0  0  0  0  0  0  0  0
   -0.1643   -3.2587    1.6374 H   0  0  0  0  0  0  0  0  0  0  0  0
    1.4661   -2.6071    1.6118 H   0  0  0  0  0  0  0  0  0  0  0  0
    1.2530   -2.8948   -0.8465 C   0  0  0  0  0  0  0  0  0  0  0  0
    1.2028   -2.6095   -1.8975 H   0  0  0  0  0  0  0  0  0  0  0  0
    2.2661   -2.7569   -0.4702 H   0  0  0  0  0  0  0  0  0  0  0  0
    0.9718   -3.9487   -0.7380 H   0  0  0  0  0  0  0  0  0  0  0  0
   -3.9694    0.2470   -0.3121 C   0  0  0  0  0  0  0  0  0  0  0  0
   -3.3134   -1.0208   -0.3329 C   0  0  0  0  0  0  0  0  0  0  0  0
   -3.8771   -1.9453   -0.3790 H   0  0  0  0  0  0  0  0  0  0  0  0
   -1.0881   -2.2616   -0.5697 C   0  0  0  0  0  0  0  0  0  0  0  0
   -1.5081   -3.1739   -0.1341 H   0  0  0  0  0  0  0  0  0  0  0  0
   -1.0226   -2.4066   -1.6532 H   0  0  0  0  0  0  0  0  0  0  0  0
   -5.2556    0.4299   -0.2883 O   0  0  0  0  0  0  0  0  0  0  0  0
   -6.2165   -0.6742   -0.2862 C   0  0  0  0  0  0  0  0  0  0  0  0
   -7.1897   -0.1893   -0.2457 H   0  0  0  0  0  0  0  0  0  0  0  0
   -6.1114   -1.2473   -1.2111 H   0  0  0  0  0  0  0  0  0  0  0  0
   -6.0584   -1.2950    0.5996 H   0  0  0  0  0  0  0  0  0  0  0  0
    0.5500   -0.0156   -2.0513 O   0  0  0  0  0  0  0  0  0  0  0  0
    1.4134   -0.0604   -2.5079 H   0  0  0  0  0  0  0  0  0  0  0  0
    2.6080   -0.1001   -0.4090 N   0  0  0  0  0  0  0  0  0  0  0  0
    3.7705   -0.1628   -0.6341 C   0  0  0  0  0  0  0  0  0  0  0  0
    5.3690   -0.2478   -0.9224 S   0  0  0  0  0  0  0  0  0  0  0  0
  2  1  9  0  0  0  0
  3 38  2  0  0  0  0
  3  2  1  0  0  0  0
  4 13  1  6  0  0  0
  4 17  1  0  0  0  0
  4  1  9  0  0  0  0
  5 20  1  0  0  0  0
  5 27  1  0  0  0  0
  5 23  1  1  0  0  0
  5  1  9  0  0  0  0
  6 33  1  6  0  0  0
  6 30  1  0  0  0  0
  6  1  9  0  0  0  0
  7 37  2  0  0  0  0
  8  7  1  0  0  0  0
  9  7  1  0  0  0  0
  9  2  2  0  0  0  0
 10  9  1  0  0  0  0
 10 12  1  0  0  0  0
 10  4  1  0  0  0  0
 11 10  1  0  0  0  0
 13 14  1  0  0  0  0
 13 15  1  0  0  0  0
 16 13  1  0  0  0  0
 17 19  1  0  0  0  0
 17 18  1  0  0  0  0
 17 20  1  0  0  0  0
 20 22  1  0  0  0  0
 21 20  1  0  0  0  0
 23 24  1  0  0  0  0
 25 23  1  0  0  0  0
 26 23  1  0  0  0  0
 27 28  1  0  0  0  0
 29 27  1  0  0  0  0
 30 32  1  0  0  0  0
 30 31  1  0  0  0  0
 30 27  1  0  0  0  0
 33 36  1  0  0  0  0
 33 35  1  0  0  0  0
 34 33  1  0  0  0  0
 37 43  1  0  0  0  0
 38 37  1  0  0  0  0
 39 38  1  0  0  0  0
 40  3  1  0  0  0  0
 40 41  1  0  0  0  0
 40  6  1  0  0  0  0
 42 40  1  0  0  0  0
 43 44  1  0  0  0  0
 44 45  1  0  0  0  0
 44 47  1  0  0  0  0
 46 44  1  0  0  0  0
 48  1  1  0  0  0  0
 49 48  1  0  0  0  0
 50  1  1  0  0  0  0
 51 50  2  0  0  0  0
 52 51  2  0  0  0  0
M  CHG  1   1   3
M  END
$$$$
