
 OpenBabel02052520073D

 55 59  0  0  0  0  0  0  0  0999 V2000
    1.1702    0.0633    0.0777 Fe  0  1  0  0  0  0  0  0  0  0  0  0
   -0.7600    0.1762   -0.1156 N   0  0  0  0  0  0  0  0  0  0  0  0
   -1.5621    0.1801    0.9884 C   0  0  0  0  0  0  0  0  0  0  0  0
    2.8942   -0.0076    0.2549 O   0  0  0  0  0  0  0  0  0  0  0  0
    1.0335   -0.1381   -2.0942 N   0  0  1  0  0  0  0  0  0  0  0  0
    1.1248   -2.1479    0.0480 N   0  0  1  0  0  0  0  0  0  0  0  0
    0.5941   -0.1851    2.1728 N   0  0  1  0  0  0  0  0  0  0  0  0
   -2.6757    0.1719   -1.5453 C   0  0  0  0  0  0  0  0  0  0  0  0
   -3.1250    0.1949   -2.5329 H   0  0  0  0  0  0  0  0  0  0  0  0
   -1.3177    0.2104   -1.3682 C   0  0  0  0  0  0  0  0  0  0  0  0
   -0.3145    0.4092   -2.4725 C   0  0  0  0  0  0  0  0  0  0  0  0
   -0.1950    1.4861   -2.6280 H   0  0  0  0  0  0  0  0  0  0  0  0
   -0.6431   -0.0245   -3.4235 H   0  0  0  0  0  0  0  0  0  0  0  0
    2.1202    0.6135   -2.7881 C   0  0  0  0  0  0  0  0  0  0  0  0
    2.0281    0.4855   -3.8739 H   0  0  0  0  0  0  0  0  0  0  0  0
    3.0853    0.2330   -2.4533 H   0  0  0  0  0  0  0  0  0  0  0  0
    2.0374    1.6714   -2.5380 H   0  0  0  0  0  0  0  0  0  0  0  0
    1.1619   -1.6162   -2.3729 C   0  0  0  0  0  0  0  0  0  0  0  0
    2.2265   -1.8375   -2.4516 H   0  0  0  0  0  0  0  0  0  0  0  0
    0.7135   -1.8438   -3.3471 H   0  0  0  0  0  0  0  0  0  0  0  0
    0.5118   -2.4604   -1.2858 C   0  0  0  0  0  0  0  0  0  0  0  0
   -0.5609   -2.2778   -1.2186 H   0  0  0  0  0  0  0  0  0  0  0  0
    0.6603   -3.5266   -1.5002 H   0  0  0  0  0  0  0  0  0  0  0  0
    2.5018   -2.7065    0.1776 C   0  0  0  0  0  0  0  0  0  0  0  0
    2.4207   -3.8010    0.1508 H   0  0  0  0  0  0  0  0  0  0  0  0
    2.9563   -2.3925    1.1134 H   0  0  0  0  0  0  0  0  0  0  0  0
    3.1335   -2.3626   -0.6370 H   0  0  0  0  0  0  0  0  0  0  0  0
    0.2641   -2.4905    1.2284 C   0  0  0  0  0  0  0  0  0  0  0  0
    0.3749   -3.5605    1.4459 H   0  0  0  0  0  0  0  0  0  0  0  0
   -0.7756   -2.3093    0.9545 H   0  0  0  0  0  0  0  0  0  0  0  0
    0.6822   -1.6678    2.4394 C   0  0  0  0  0  0  0  0  0  0  0  0
    0.0572   -1.9219    3.3036 H   0  0  0  0  0  0  0  0  0  0  0  0
    1.7140   -1.8838    2.7175 H   0  0  0  0  0  0  0  0  0  0  0  0
    1.5085    0.5587    3.0886 C   0  0  0  0  0  0  0  0  0  0  0  0
    1.4653    1.6214    2.8484 H   0  0  0  0  0  0  0  0  0  0  0  0
    2.5259    0.1938    2.9470 H   0  0  0  0  0  0  0  0  0  0  0  0
    1.2017    0.4052    4.1307 H   0  0  0  0  0  0  0  0  0  0  0  0
   -3.5296    0.1264   -0.4037 C   0  0  0  0  0  0  0  0  0  0  0  0
   -2.9359    0.1438    0.8901 C   0  0  0  0  0  0  0  0  0  0  0  0
   -3.5444    0.1464    1.7868 H   0  0  0  0  0  0  0  0  0  0  0  0
   -0.8099    0.3394    2.2836 C   0  0  0  0  0  0  0  0  0  0  0  0
   -1.3220   -0.1327    3.1295 H   0  0  0  0  0  0  0  0  0  0  0  0
   -0.7418    1.4104    2.5004 H   0  0  0  0  0  0  0  0  0  0  0  0
   -4.8075    0.0827   -0.6512 O   0  0  0  0  0  0  0  0  0  0  0  0
   -5.8108    0.0563    0.4102 C   0  0  0  0  0  0  0  0  0  0  0  0
   -6.7641    0.0203   -0.1131 H   0  0  0  0  0  0  0  0  0  0  0  0
   -5.7376    0.9692    1.0072 H   0  0  0  0  0  0  0  0  0  0  0  0
   -5.6769   -0.8404    1.0213 H   0  0  0  0  0  0  0  0  0  0  0  0
    1.2715    2.2818    0.1061 N   0  0  0  0  0  0  0  0  0  0  0  0
    1.3906    3.4362    0.1232 C   0  0  0  0  0  0  0  0  0  0  0  0
    1.5442    4.8834    0.1447 C   0  0  0  0  0  0  0  0  0  0  0  0
    0.5692    5.3652    0.0081 H   0  0  0  0  0  0  0  0  0  0  0  0
    1.9697    5.1979    1.1050 H   0  0  0  0  0  0  0  0  0  0  0  0
    2.2167    5.1976   -0.6623 H   0  0  0  0  0  0  0  0  0  0  0  0
    3.3897    0.8349    0.3118 H   0  0  0  0  0  0  0  0  0  0  0  0
  1  4  1  0  0  0  0
  2  3  1  0  0  0  0
  2  1  9  0  0  0  0
  3 41  1  0  0  0  0
  4 55  1  0  0  0  0
  5 14  1  6  0  0  0
  5  1  9  0  0  0  0
  6 24  1  1  0  0  0
  6 28  1  0  0  0  0
  6  1  9  0  0  0  0
  7 41  1  0  0  0  0
  7 31  1  0  0  0  0
  7 34  1  1  0  0  0
  7  1  9  0  0  0  0
  8 10  1  0  0  0  0
  8 38  2  0  0  0  0
  9  8  1  0  0  0  0
 10  2  2  0  0  0  0
 11  5  1  0  0  0  0
 11 10  1  0  0  0  0
 12 11  1  0  0  0  0
 13 11  1  0  0  0  0
 14 17  1  0  0  0  0
 14 16  1  0  0  0  0
 15 14  1  0  0  0  0
 18  5  1  0  0  0  0
 18 21  1  0  0  0  0
 19 18  1  0  0  0  0
 20 18  1  0  0  0  0
 21 22  1  0  0  0  0
 21  6  1  0  0  0  0
 23 21  1  0  0  0  0
 24 26  1  0  0  0  0
 25 24  1  0  0  0  0
 27 24  1  0  0  0  0
 28 29  1  0  0  0  0
 28 31  1  0  0  0  0
 30 28  1  0  0  0  0
 31 33  1  0  0  0  0
 31 32  1  0  0  0  0
 34 37  1  0  0  0  0
 35 34  1  0  0  0  0
 36 34  1  0  0  0  0
 38 39  1  0  0  0  0
 39  3  2  0  0  0  0
 39 40  1  0  0  0  0
 41 43  1  0  0  0  0
 41 42  1  0  0  0  0
 44 38  1  0  0  0  0
 44 45  1  0  0  0  0
 45 47  1  0  0  0  0
 45 48  1  0  0  0  0
 46 45  1  0  0  0  0
 49 50  3  0  0  0  0
 49  1  9  0  0  0  0
 50 51  1  0  0  0  0
 51 53  1  0  0  0  0
 52 51  1  0  0  0  0
 54 51  1  0  0  0  0
M  CHG  1   1   3
M  END
$$$$
