
 OpenBabel02052520073D

 52 54  0  0  0  0  0  0  0  0999 V2000
    1.1907    0.2013    0.0659 Fe  0  1  2  0  0  0  0  0  0  0  0  0
   -0.7493   -0.4855   -0.1257 N   0  0  0  0  0  2  0  0  0  0  0  0
   -1.4847   -0.7832    0.9760 C   0  0  1  0  0  3  0  0  0  0  0  0
    0.6841    0.6766   -2.0353 N   0  0  2  0  0  0  0  0  0  0  0  0
   -0.4466    3.0122    0.1002 N   0  0  0  0  0  0  0  0  0  0  0  0
    0.3524    0.4316    2.1029 N   0  0  2  0  0  0  0  0  0  0  0  0
   -2.5716   -1.1231   -1.5380 C   0  0  0  0  0  0  0  0  0  0  0  0
   -3.0098   -1.2530   -2.5225 H   0  0  0  0  0  0  0  0  0  0  0  0
   -1.2971   -0.6421   -1.3642 C   0  0  0  0  0  0  0  0  0  0  0  0
   -0.3642   -0.2845   -2.4968 C   0  0  0  0  0  0  0  0  0  0  0  0
    0.1435   -1.1961   -2.8295 H   0  0  0  0  0  0  0  0  0  0  0  0
   -0.9081    0.1091   -3.3636 H   0  0  0  0  0  0  0  0  0  0  0  0
    1.9537    0.4784   -2.8053 C   0  0  0  0  0  0  0  0  0  0  0  0
    1.8029    0.6815   -3.8721 H   0  0  0  0  0  0  0  0  0  0  0  0
    2.7162    1.1516   -2.4103 H   0  0  0  0  0  0  0  0  0  0  0  0
    2.2867   -0.5537   -2.6812 H   0  0  0  0  0  0  0  0  0  0  0  0
    0.2693    2.1040   -2.1772 C   0  0  0  0  0  0  0  0  0  0  0  0
    1.1599    2.7121   -2.0219 H   0  0  0  0  0  0  0  0  0  0  0  0
   -0.0752    2.2694   -3.2058 H   0  0  0  0  0  0  0  0  0  0  0  0
   -0.8675    2.6048   -1.2457 C   0  0  0  0  0  0  0  0  0  0  0  0
   -1.6773    1.8818   -1.1569 H   0  0  0  0  0  0  0  0  0  0  0  0
   -1.2720    3.5122   -1.7172 H   0  0  0  0  0  0  0  0  0  0  0  0
    0.3447    4.2251    0.2318 C   0  0  0  0  0  0  0  0  0  0  0  0
   -0.3568    5.0775    0.2414 H   0  0  0  0  0  0  0  0  0  0  0  0
    0.9038    4.2241    1.1672 H   0  0  0  0  0  0  0  0  0  0  0  0
    1.0215    4.3411   -0.6142 H   0  0  0  0  0  0  0  0  0  0  0  0
   -1.0658    2.4586    1.3107 C   0  0  0  0  0  0  0  0  0  0  0  0
   -1.5427    3.3110    1.8158 H   0  0  0  0  0  0  0  0  0  0  0  0
   -1.8487    1.7611    1.0157 H   0  0  0  0  0  0  0  0  0  0  0  0
   -0.0836    1.8398    2.3416 C   0  0  0  0  0  0  0  0  0  0  0  0
   -0.5816    1.8933    3.3180 H   0  0  0  0  0  0  0  0  0  0  0  0
    0.8187    2.4481    2.3935 H   0  0  0  0  0  0  0  0  0  0  0  0
    1.4861    0.1269    3.0336 C   0  0  0  0  0  0  0  0  0  0  0  0
    1.8386   -0.8885    2.8427 H   0  0  0  0  0  0  0  0  0  0  0  0
    2.2984    0.8300    2.8430 H   0  0  0  0  0  0  0  0  0  0  0  0
    1.1694    0.2074    4.0802 H   0  0  0  0  0  0  0  0  0  0  0  0
   -3.3387   -1.4820   -0.3920 C   0  0  0  0  0  0  0  0  0  0  0  0
   -2.7710   -1.2781    0.8960 C   0  0  0  0  0  0  0  0  0  0  0  0
   -3.3256   -1.5090    1.7980 H   0  0  0  0  0  0  0  0  0  0  0  0
   -0.7526   -0.5588    2.2792 C   0  0  0  0  0  0  0  0  0  0  0  0
   -1.4342   -0.2518    3.0814 H   0  0  0  0  0  0  0  0  0  0  0  0
   -0.3041   -1.5077    2.5923 H   0  0  0  0  0  0  0  0  0  0  0  0
   -4.5315   -1.9572   -0.6310 O   0  0  0  0  0  0  0  0  0  0  0  0
   -5.4263   -2.3891    0.4363 C   0  0  0  0  0  0  0  0  0  0  0  0
   -6.3125   -2.7564   -0.0773 H   0  0  0  0  0  0  0  0  0  0  0  0
   -4.9560   -3.1931    1.0092 H   0  0  0  0  0  0  0  0  0  0  0  0
   -5.6806   -1.5368    1.0726 H   0  0  0  0  0  0  0  0  0  0  0  0
    2.1189    1.7384    0.2381 O   0  0  0  0  0  0  0  0  0  0  0  0
    3.0777    1.8981    0.2958 H   0  0  0  0  0  0  0  0  0  0  0  0
    2.3213   -1.4901    0.0504 N   0  0  0  0  0  0  0  0  0  0  0  0
    3.0481   -2.4293    0.0425 C   0  0  0  0  0  0  0  0  0  0  0  0
    4.0489   -3.7103    0.0324 S   0  0  0  0  0  0  0  0  0  0  0  0
  1 50  1  1  0  0  0
  1 48  1  0  0  0  0
  3  2  1  6  0  0  0
  3 40  1  0  0  0  0
  4 13  1  6  0  0  0
  4  1  9  0  0  0  0
  5 23  1  0  0  0  0
  5 27  1  0  0  0  0
  6 40  1  0  0  0  0
  6 30  1  0  0  0  0
  6 33  1  1  0  0  0
  6  1  9  0  0  0  0
  7  9  2  0  0  0  0
  7 37  1  0  0  0  0
  8  7  1  0  0  0  0
  9  2  1  0  0  0  0
 10  4  1  0  0  0  0
 10  9  1  0  0  0  0
 11 10  1  0  0  0  0
 12 10  1  0  0  0  0
 13 16  1  0  0  0  0
 13 15  1  0  0  0  0
 14 13  1  0  0  0  0
 17  4  1  0  0  0  0
 17 18  1  0  0  0  0
 17 20  1  0  0  0  0
 19 17  1  0  0  0  0
 20 21  1  0  0  0  0
 20  5  1  0  0  0  0
 22 20  1  0  0  0  0
 23 24  1  0  0  0  0
 23 25  1  0  0  0  0
 26 23  1  0  0  0  0
 27 28  1  0  0  0  0
 27 30  1  0  0  0  0
 29 27  1  0  0  0  0
 30 32  1  0  0  0  0
 30 31  1  0  0  0  0
 33 36  1  0  0  0  0
 34 33  1  0  0  0  0
 35 33  1  0  0  0  0
 37 38  2  0  0  0  0
 38  3  1  0  0  0  0
 38 39  1  0  0  0  0
 40 42  1  0  0  0  0
 40 41  1  0  0  0  0
 43 37  1  0  0  0  0
 43 44  1  0  0  0  0
 44 46  1  0  0  0  0
 44 47  1  0  0  0  0
 45 44  1  0  0  0  0
 48 49  1  0  0  0  0
 51 50  2  0  0  0  0
 52 51  2  0  0  0  0
M  RAD  2   2   2   3   2
M  CHG  1   1   3
M  END
$$$$
