
 OpenBabel02072512503D

 52 54  0  0  0  0  0  0  0  0999 V2000
   -1.1191    0.4468    0.0535 Fe  0  1  1  0  0 28  0  0  0  0  0  0
    0.8130    0.3141   -0.1220 N   0  0  0  0  0  0  0  0  0  0  0  0
    1.5974    0.3193    0.9889 C   0  0  0  0  0  0  0  0  0  0  0  0
   -0.9966   -0.0413   -1.9730 N   0  0  2  0  0  0  0  0  0  0  0  0
   -0.9839   -2.7023    0.0892 N   0  0  0  0  0  0  0  0  0  0  0  0
   -0.6196    0.0217    2.0371 N   0  0  2  0  0  0  0  0  0  0  0  0
    2.7354    0.2190   -1.5313 C   0  0  0  0  0  0  0  0  0  0  0  0
    3.1934    0.1871   -2.5149 H   0  0  0  0  0  0  0  0  0  0  0  0
    1.3760    0.2775   -1.3671 C   0  0  0  0  0  0  0  0  0  0  0  0
    0.3640    0.3832   -2.4719 C   0  0  0  0  0  0  0  0  0  0  0  0
    0.2853    1.4333   -2.7708 H   0  0  0  0  0  0  0  0  0  0  0  0
    0.6411   -0.1897   -3.3638 H   0  0  0  0  0  0  0  0  0  0  0  0
   -2.0644    0.6971   -2.7310 C   0  0  0  0  0  0  0  0  0  0  0  0
   -2.0131    0.4412   -3.7956 H   0  0  0  0  0  0  0  0  0  0  0  0
   -3.0403    0.4188   -2.3334 H   0  0  0  0  0  0  0  0  0  0  0  0
   -1.9089    1.7685   -2.6075 H   0  0  0  0  0  0  0  0  0  0  0  0
   -1.2534   -1.5118   -2.1448 C   0  0  0  0  0  0  0  0  0  0  0  0
   -2.3182   -1.6666   -1.9732 H   0  0  0  0  0  0  0  0  0  0  0  0
   -1.0394   -1.7720   -3.1881 H   0  0  0  0  0  0  0  0  0  0  0  0
   -0.4345   -2.4847   -1.2562 C   0  0  0  0  0  0  0  0  0  0  0  0
    0.6101   -2.1883   -1.1680 H   0  0  0  0  0  0  0  0  0  0  0  0
   -0.4711   -3.4625   -1.7577 H   0  0  0  0  0  0  0  0  0  0  0  0
   -2.2084   -3.4768    0.2147 C   0  0  0  0  0  0  0  0  0  0  0  0
   -1.9253   -4.5450    0.2109 H   0  0  0  0  0  0  0  0  0  0  0  0
   -2.7144   -3.2589    1.1559 H   0  0  0  0  0  0  0  0  0  0  0  0
   -2.8746   -3.2950   -0.6294 H   0  0  0  0  0  0  0  0  0  0  0  0
   -0.1978   -2.4454    1.3039 C   0  0  0  0  0  0  0  0  0  0  0  0
   -0.1405   -3.4071    1.8337 H   0  0  0  0  0  0  0  0  0  0  0  0
    0.8122   -2.1568    1.0153 H   0  0  0  0  0  0  0  0  0  0  0  0
   -0.8402   -1.4418    2.2975 C   0  0  0  0  0  0  0  0  0  0  0  0
   -0.4396   -1.6722    3.2918 H   0  0  0  0  0  0  0  0  0  0  0  0
   -1.9184   -1.5956    2.3280 H   0  0  0  0  0  0  0  0  0  0  0  0
   -1.5287    0.7885    2.9569 C   0  0  0  0  0  0  0  0  0  0  0  0
   -1.3993    1.8547    2.7731 H   0  0  0  0  0  0  0  0  0  0  0  0
   -2.5611    0.5035    2.7549 H   0  0  0  0  0  0  0  0  0  0  0  0
   -1.2817    0.5648    4.0011 H   0  0  0  0  0  0  0  0  0  0  0  0
    3.5787    0.2309   -0.3807 C   0  0  0  0  0  0  0  0  0  0  0  0
    2.9723    0.2684    0.9073 C   0  0  0  0  0  0  0  0  0  0  0  0
    3.5714    0.2727    1.8104 H   0  0  0  0  0  0  0  0  0  0  0  0
    0.8097    0.4519    2.2622 C   0  0  0  0  0  0  0  0  0  0  0  0
    1.2496   -0.1031    3.0983 H   0  0  0  0  0  0  0  0  0  0  0  0
    0.7895    1.5085    2.5481 H   0  0  0  0  0  0  0  0  0  0  0  0
    4.8594    0.1961   -0.6148 O   0  0  0  0  0  0  0  0  0  0  0  0
    5.8521    0.2437    0.4559 C   0  0  0  0  0  0  0  0  0  0  0  0
    6.8114    0.2236   -0.0573 H   0  0  0  0  0  0  0  0  0  0  0  0
    5.7403    1.1739    1.0192 H   0  0  0  0  0  0  0  0  0  0  0  0
    5.7449   -0.6354    1.0972 H   0  0  0  0  0  0  0  0  0  0  0  0
   -2.6919   -0.3276    0.2135 O   0  0  0  0  0  1  0  0  0  0  0  0
   -3.4989    0.2204    0.2727 H   0  0  0  0  0  0  0  0  0  0  0  0
   -1.3634    2.2988    0.0463 N   0  0  0  0  0  0  0  0  0  0  0  0
   -1.9337    3.3764    0.0741 N   0  3  0  0  0  0  0  0  0  0  0  0
   -2.4439    4.4039    0.0976 N   0  5  0  0  0  0  0  0  0  0  0  0
  1 50  1  1  0  0  0
  2  3  1  0  0  0  0
  2  1  9  0  0  0  0
  3 40  1  0  0  0  0
  4 13  1  6  0  0  0
  4  1  9  0  0  0  0
  5 23  1  0  0  0  0
  5 27  1  0  0  0  0
  6 40  1  0  0  0  0
  6 30  1  0  0  0  0
  6 33  1  1  0  0  0
  6  1  9  0  0  0  0
  7  9  1  0  0  0  0
  7 37  2  0  0  0  0
  8  7  1  0  0  0  0
  9  2  2  0  0  0  0
 10  4  1  0  0  0  0
 10  9  1  0  0  0  0
 11 10  1  0  0  0  0
 12 10  1  0  0  0  0
 13 16  1  0  0  0  0
 13 15  1  0  0  0  0
 14 13  1  0  0  0  0
 17 18  1  0  0  0  0
 17  4  1  0  0  0  0
 17 20  1  0  0  0  0
 19 17  1  0  0  0  0
 20 21  1  0  0  0  0
 20  5  1  0  0  0  0
 22 20  1  0  0  0  0
 23 25  1  0  0  0  0
 24 23  1  0  0  0  0
 26 23  1  0  0  0  0
 27 28  1  0  0  0  0
 27 30  1  0  0  0  0
 29 27  1  0  0  0  0
 30 32  1  0  0  0  0
 30 31  1  0  0  0  0
 33 36  1  0  0  0  0
 34 33  1  0  0  0  0
 35 33  1  0  0  0  0
 37 38  1  0  0  0  0
 38  3  2  0  0  0  0
 38 39  1  0  0  0  0
 40 42  1  0  0  0  0
 40 41  1  0  0  0  0
 43 37  1  0  0  0  0
 43 44  1  0  0  0  0
 44 46  1  0  0  0  0
 44 47  1  0  0  0  0
 45 44  1  0  0  0  0
 48 49  1  0  0  0  0
 50 51  2  0  0  0  0
 51 52  2  0  0  0  0
M  RAD  2   1   2  48   2
M  CHG  3   1   3  51   1  52  -1
M  END
$$$$
