
 OpenBabel02052520073D

 50 52  0  0  0  0  0  0  0  0999 V2000
   -1.0525    0.0150   -0.9475 Fe  0  1  2  0  0  0  0  0  0  0  0  0
    0.7743   -0.1305   -0.3315 N   0  0  0  0  0  2  0  0  0  0  0  0
    1.5499    0.9896   -0.2591 C   0  0  1  0  0  3  0  0  0  0  0  0
   -1.0670   -1.9736   -0.3305 N   0  0  2  0  0  0  0  0  0  0  0  0
   -1.6907    0.1927    2.1646 N   0  0  0  0  0  0  0  0  0  0  0  0
   -0.6905    2.0130   -0.4820 N   0  0  2  0  0  0  0  0  0  0  0  0
    2.6547   -1.5238    0.1259 C   0  0  0  0  0  0  0  0  0  0  0  0
    3.1030   -2.5019    0.2709 H   0  0  0  0  0  0  0  0  0  0  0  0
    1.3256   -1.3743   -0.1652 C   0  0  0  0  0  0  0  0  0  0  0  0
    0.3523   -2.4901   -0.4136 C   0  0  0  0  0  0  0  0  0  0  0  0
    0.5015   -2.8618   -1.4326 H   0  0  0  0  0  0  0  0  0  0  0  0
    0.4861   -3.3375    0.2676 H   0  0  0  0  0  0  0  0  0  0  0  0
   -1.9333   -2.7203   -1.3146 C   0  0  0  0  0  0  0  0  0  0  0  0
   -1.9011   -3.7922   -1.0872 H   0  0  0  0  0  0  0  0  0  0  0  0
   -2.9578   -2.3578   -1.2356 H   0  0  0  0  0  0  0  0  0  0  0  0
   -1.5559   -2.5413   -2.3225 H   0  0  0  0  0  0  0  0  0  0  0  0
   -1.6737   -2.0905    1.0382 C   0  0  0  0  0  0  0  0  0  0  0  0
   -2.7442   -1.9217    0.9239 H   0  0  0  0  0  0  0  0  0  0  0  0
   -1.5318   -3.1230    1.3793 H   0  0  0  0  0  0  0  0  0  0  0  0
   -1.1051   -1.1567    2.1398 C   0  0  0  0  0  0  0  0  0  0  0  0
   -0.0199   -1.0710    2.0922 H   0  0  0  0  0  0  0  0  0  0  0  0
   -1.3699   -1.6178    3.1023 H   0  0  0  0  0  0  0  0  0  0  0  0
   -3.0627    0.3372    2.6250 C   0  0  0  0  0  0  0  0  0  0  0  0
   -3.0373    0.3812    3.7297 H   0  0  0  0  0  0  0  0  0  0  0  0
   -3.5055    1.2642    2.2576 H   0  0  0  0  0  0  0  0  0  0  0  0
   -3.6685   -0.5216    2.3326 H   0  0  0  0  0  0  0  0  0  0  0  0
   -0.8682    1.4065    2.0433 C   0  0  0  0  0  0  0  0  0  0  0  0
   -1.0405    1.9805    2.9651 H   0  0  0  0  0  0  0  0  0  0  0  0
    0.1825    1.1192    2.0137 H   0  0  0  0  0  0  0  0  0  0  0  0
   -1.2595    2.3424    0.8684 C   0  0  0  0  0  0  0  0  0  0  0  0
   -0.9300    3.3544    1.1324 H   0  0  0  0  0  0  0  0  0  0  0  0
   -2.3432    2.3639    0.7563 H   0  0  0  0  0  0  0  0  0  0  0  0
   -1.4068    2.8327   -1.5268 C   0  0  0  0  0  0  0  0  0  0  0  0
   -1.0722    2.5133   -2.5149 H   0  0  0  0  0  0  0  0  0  0  0  0
   -2.4802    2.6710   -1.4328 H   0  0  0  0  0  0  0  0  0  0  0  0
   -1.1777    3.8943   -1.3775 H   0  0  0  0  0  0  0  0  0  0  0  0
    3.4873   -0.3658    0.2129 C   0  0  0  0  0  0  0  0  0  0  0  0
    2.8942    0.9182    0.0249 C   0  0  0  0  0  0  0  0  0  0  0  0
    3.4862    1.8242    0.0864 H   0  0  0  0  0  0  0  0  0  0  0  0
    0.7992    2.2488   -0.5881 C   0  0  0  0  0  0  0  0  0  0  0  0
    1.0928    3.1000    0.0360 H   0  0  0  0  0  0  0  0  0  0  0  0
    1.0110    2.5170   -1.6284 H   0  0  0  0  0  0  0  0  0  0  0  0
    4.7410   -0.5888    0.4672 O   0  0  0  0  0  0  0  0  0  0  0  0
    5.7389    0.4804    0.5402 C   0  0  0  0  0  0  0  0  0  0  0  0
    6.6761   -0.0343    0.7420 H   0  0  0  0  0  0  0  0  0  0  0  0
    5.7857    1.0003   -0.4201 H   0  0  0  0  0  0  0  0  0  0  0  0
    5.4894    1.1576    1.3613 H   0  0  0  0  0  0  0  0  0  0  0  0
   -2.7706    0.1902   -0.6119 O   0  0  0  0  0  0  0  0  0  0  0  0
   -3.3744    0.2145   -1.3856 H   0  0  0  0  0  0  0  0  0  0  0  0
   -0.8604   -0.0656   -2.6745 F   0  0  0  0  0  0  0  0  0  0  0  0
  1 50  1  6  0  0  0
  1 48  1  0  0  0  0
  2  9  1  0  0  0  0
  3  2  1  6  0  0  0
  3 38  1  0  0  0  0
  4 13  1  6  0  0  0
  4 17  1  0  0  0  0
  4  1  9  0  0  0  0
  5 23  1  0  0  0  0
  6 33  1  6  0  0  0
  6 30  1  0  0  0  0
  6  1  9  0  0  0  0
  7 37  1  0  0  0  0
  7  8  1  0  0  0  0
  9  7  2  0  0  0  0
 10  4  1  0  0  0  0
 10  9  1  0  0  0  0
 10 12  1  0  0  0  0
 11 10  1  0  0  0  0
 13 15  1  0  0  0  0
 13 14  1  0  0  0  0
 16 13  1  0  0  0  0
 17 19  1  0  0  0  0
 17 20  1  0  0  0  0
 18 17  1  0  0  0  0
 20  5  1  0  0  0  0
 20 22  1  0  0  0  0
 21 20  1  0  0  0  0
 23 24  1  0  0  0  0
 25 23  1  0  0  0  0
 26 23  1  0  0  0  0
 27  5  1  0  0  0  0
 27 28  1  0  0  0  0
 29 27  1  0  0  0  0
 30 31  1  0  0  0  0
 30 27  1  0  0  0  0
 32 30  1  0  0  0  0
 33 35  1  0  0  0  0
 33 36  1  0  0  0  0
 34 33  1  0  0  0  0
 37 43  1  0  0  0  0
 38 39  1  0  0  0  0
 38 37  2  0  0  0  0
 40  6  1  0  0  0  0
 40  3  1  0  0  0  0
 40 41  1  0  0  0  0
 42 40  1  0  0  0  0
 43 44  1  0  0  0  0
 44 45  1  0  0  0  0
 44 47  1  0  0  0  0
 46 44  1  0  0  0  0
 49 48  1  0  0  0  0
M  RAD  2   2   2   3   2
M  CHG  1   1   3
M  END
$$$$
