
 OpenBabel02052520073D

 50 52  0  0  0  0  0  0  0  0999 V2000
   -0.9364    0.0051   -0.9291 Fe  0  1  1  0  0  0  0  0  0  0  0  0
    0.8893   -0.1261   -0.2494 N   0  0  0  0  0  2  0  0  0  0  0  0
    1.6607    0.9970   -0.2175 C   0  0  1  0  0  3  0  0  0  0  0  0
   -0.9295   -2.0237   -0.2789 N   0  0  2  0  0  0  0  0  0  0  0  0
   -1.5362    0.1511    2.2095 N   0  0  0  0  0  0  0  0  0  0  0  0
   -0.5852    2.0393   -0.4022 N   0  0  2  0  0  0  0  0  0  0  0  0
    2.8028   -1.5086    0.0847 C   0  0  0  0  0  0  0  0  0  0  0  0
    3.2632   -2.4849    0.2017 H   0  0  0  0  0  0  0  0  0  0  0  0
    1.4597   -1.3650   -0.1482 C   0  0  0  0  0  0  0  0  0  0  0  0
    0.5012   -2.4933   -0.3906 C   0  0  0  0  0  0  0  0  0  0  0  0
    0.6454   -2.8447   -1.4174 H   0  0  0  0  0  0  0  0  0  0  0  0
    0.6696   -3.3487    0.2738 H   0  0  0  0  0  0  0  0  0  0  0  0
   -1.7775   -2.8391   -1.2225 C   0  0  0  0  0  0  0  0  0  0  0  0
   -1.6688   -3.9027   -0.9776 H   0  0  0  0  0  0  0  0  0  0  0  0
   -2.8216   -2.5442   -1.1306 H   0  0  0  0  0  0  0  0  0  0  0  0
   -1.4346   -2.6581   -2.2415 H   0  0  0  0  0  0  0  0  0  0  0  0
   -1.4898   -2.1524    1.1088 C   0  0  0  0  0  0  0  0  0  0  0  0
   -2.5710   -2.0382    1.0309 H   0  0  0  0  0  0  0  0  0  0  0  0
   -1.2909   -3.1739    1.4561 H   0  0  0  0  0  0  0  0  0  0  0  0
   -0.9309   -1.1906    2.1885 C   0  0  0  0  0  0  0  0  0  0  0  0
    0.1515   -1.0867    2.1273 H   0  0  0  0  0  0  0  0  0  0  0  0
   -1.1764   -1.6454    3.1591 H   0  0  0  0  0  0  0  0  0  0  0  0
   -2.8937    0.2793    2.7223 C   0  0  0  0  0  0  0  0  0  0  0  0
   -2.8273    0.3061    3.8253 H   0  0  0  0  0  0  0  0  0  0  0  0
   -3.3552    1.2079    2.3836 H   0  0  0  0  0  0  0  0  0  0  0  0
   -3.5039   -0.5786    2.4364 H   0  0  0  0  0  0  0  0  0  0  0  0
   -0.7185    1.3710    2.1118 C   0  0  0  0  0  0  0  0  0  0  0  0
   -0.8842    1.9188    3.0507 H   0  0  0  0  0  0  0  0  0  0  0  0
    0.3317    1.0860    2.0665 H   0  0  0  0  0  0  0  0  0  0  0  0
   -1.1126    2.3440    0.9709 C   0  0  0  0  0  0  0  0  0  0  0  0
   -0.7470    3.3380    1.2571 H   0  0  0  0  0  0  0  0  0  0  0  0
   -2.1980    2.4054    0.8918 H   0  0  0  0  0  0  0  0  0  0  0  0
   -1.2861    2.9281   -1.3987 C   0  0  0  0  0  0  0  0  0  0  0  0
   -0.9776    2.6345   -2.4025 H   0  0  0  0  0  0  0  0  0  0  0  0
   -2.3646    2.8141   -1.3008 H   0  0  0  0  0  0  0  0  0  0  0  0
   -1.0047    3.9718   -1.2136 H   0  0  0  0  0  0  0  0  0  0  0  0
    3.6269   -0.3444    0.1636 C   0  0  0  0  0  0  0  0  0  0  0  0
    3.0170    0.9358    0.0126 C   0  0  0  0  0  0  0  0  0  0  0  0
    3.6020    1.8469    0.0656 H   0  0  0  0  0  0  0  0  0  0  0  0
    0.9038    2.2556   -0.5285 C   0  0  0  0  0  0  0  0  0  0  0  0
    1.2159    3.1064    0.0881 H   0  0  0  0  0  0  0  0  0  0  0  0
    1.1024    2.5187   -1.5725 H   0  0  0  0  0  0  0  0  0  0  0  0
    4.8911   -0.5605    0.3719 O   0  0  0  0  0  0  0  0  0  0  0  0
    5.8849    0.5132    0.4246 C   0  0  0  0  0  0  0  0  0  0  0  0
    6.8303    0.0023    0.5953 H   0  0  0  0  0  0  0  0  0  0  0  0
    5.8998    1.0416   -0.5322 H   0  0  0  0  0  0  0  0  0  0  0  0
    5.6543    1.1827    1.2580 H   0  0  0  0  0  0  0  0  0  0  0  0
   -0.5726   -0.0772   -2.6694 O   0  0  0  0  0  0  0  0  0  0  0  0
   -1.1623   -0.0547   -3.4513 H   0  0  0  0  0  0  0  0  0  0  0  0
   -3.0787    0.1929   -0.6845 Cl  0  0  0  0  0  0  0  0  0  0  0  0
  1 50  1  6  0  0  0
  2  9  1  0  0  0  0
  3  2  1  6  0  0  0
  3 38  1  0  0  0  0
  4 13  1  6  0  0  0
  4 17  1  0  0  0  0
  4  1  9  0  0  0  0
  5 23  1  0  0  0  0
  6 33  1  6  0  0  0
  6 30  1  0  0  0  0
  6  1  9  0  0  0  0
  7 37  1  0  0  0  0
  7  8  1  0  0  0  0
  9  7  2  0  0  0  0
 10  4  1  0  0  0  0
 10  9  1  0  0  0  0
 10 12  1  0  0  0  0
 11 10  1  0  0  0  0
 13 15  1  0  0  0  0
 13 14  1  0  0  0  0
 16 13  1  0  0  0  0
 17 19  1  0  0  0  0
 17 20  1  0  0  0  0
 18 17  1  0  0  0  0
 20  5  1  0  0  0  0
 20 22  1  0  0  0  0
 21 20  1  0  0  0  0
 23 24  1  0  0  0  0
 25 23  1  0  0  0  0
 26 23  1  0  0  0  0
 27  5  1  0  0  0  0
 27 28  1  0  0  0  0
 29 27  1  0  0  0  0
 30 31  1  0  0  0  0
 30 27  1  0  0  0  0
 32 30  1  0  0  0  0
 33 35  1  0  0  0  0
 33 36  1  0  0  0  0
 34 33  1  0  0  0  0
 37 43  1  0  0  0  0
 38 39  1  0  0  0  0
 38 37  2  0  0  0  0
 40  6  1  0  0  0  0
 40  3  1  0  0  0  0
 40 41  1  0  0  0  0
 42 40  1  0  0  0  0
 43 44  1  0  0  0  0
 44 45  1  0  0  0  0
 44 47  1  0  0  0  0
 46 44  1  0  0  0  0
 48  1  1  0  0  0  0
 49 48  1  0  0  0  0
M  RAD  2   2   2   3   2
M  CHG  1   1   3
M  END
$$$$
