
 OpenBabel02072512503D

 66 69  0  0  0  0  0  0  0  0999 V2000
   -0.4953    0.0571    0.2146 Fe  0  3  2  0  0 28  0  0  0  0  0  0
   -2.6631   -0.0312    0.4436 N   0  0  0  0  0  2  0  0  0  0  0  0
   -3.2589   -1.2222    0.6427 C   0  0  0  0  0  0  0  0  0  0  0  0
    1.2189    1.1535   -0.0416 O   0  0  0  0  0  1  0  0  0  0  0  0
   -1.2990    2.2129   -0.3412 N   0  0  1  0  0  0  0  0  0  0  0  0
   -0.8274   -0.2795   -1.9122 N   0  0  1  0  0  0  0  0  0  0  0  0
   -0.9753   -2.1905    0.3664 N   0  0  1  0  0  0  0  0  0  0  0  0
   -4.8066    1.0261    0.3373 C   0  0  0  0  0  0  0  0  0  0  0  0
   -5.3867    1.9357    0.2199 H   0  0  0  0  0  0  0  0  0  0  0  0
   -3.4158    1.0791    0.3115 C   0  3  0  0  0  0  0  0  0  0  0  0
   -2.6625    2.3738    0.2168 C   0  0  0  0  0  0  0  0  0  0  0  0
   -2.5555    2.7621    1.2359 H   0  0  0  0  0  0  0  0  0  0  0  0
   -3.2300    3.1233   -0.3508 H   0  0  0  0  0  0  0  0  0  0  0  0
   -0.4663    3.3443    0.1537 C   0  0  0  0  0  0  0  0  0  0  0  0
   -0.9398    4.3013   -0.1005 H   0  0  0  0  0  0  0  0  0  0  0  0
    0.5249    3.2983   -0.2886 H   0  0  0  0  0  0  0  0  0  0  0  0
   -0.3705    3.2664    1.2384 H   0  0  0  0  0  0  0  0  0  0  0  0
   -1.2799    2.1749   -1.8307 C   0  0  0  0  0  0  0  0  0  0  0  0
   -0.2564    2.3908   -2.1413 H   0  0  0  0  0  0  0  0  0  0  0  0
   -1.9178    2.9680   -2.2445 H   0  0  0  0  0  0  0  0  0  0  0  0
   -1.7223    0.8263   -2.3892 C   0  0  0  0  0  0  0  0  0  0  0  0
   -2.7429    0.5957   -2.0847 H   0  0  0  0  0  0  0  0  0  0  0  0
   -1.7081    0.8611   -3.4854 H   0  0  0  0  0  0  0  0  0  0  0  0
    0.4364   -0.2772   -2.7077 C   0  0  0  0  0  0  0  0  0  0  0  0
    0.2011   -0.3996   -3.7711 H   0  0  0  0  0  0  0  0  0  0  0  0
    1.0816   -1.0889   -2.3812 H   0  0  0  0  0  0  0  0  0  0  0  0
    0.9619    0.6648   -2.5590 H   0  0  0  0  0  0  0  0  0  0  0  0
   -1.4906   -1.6229   -2.0175 C   0  0  0  0  0  0  0  0  0  0  0  0
   -1.4079   -1.9931   -3.0465 H   0  0  0  0  0  0  0  0  0  0  0  0
   -2.5518   -1.4959   -1.8012 H   0  0  0  0  0  0  0  0  0  0  0  0
   -0.8565   -2.6232   -1.0576 C   0  0  0  0  0  0  0  0  0  0  0  0
   -1.3160   -3.6112   -1.1960 H   0  0  0  0  0  0  0  0  0  0  0  0
    0.2089   -2.7239   -1.2674 H   0  0  0  0  0  0  0  0  0  0  0  0
   -0.0345   -2.9680    1.2245 C   0  0  0  0  0  0  0  0  0  0  0  0
   -0.0249   -2.5232    2.2214 H   0  0  0  0  0  0  0  0  0  0  0  0
    0.9676   -2.9298    0.8093 H   0  0  0  0  0  0  0  0  0  0  0  0
   -0.3678   -4.0112    1.2931 H   0  0  0  0  0  0  0  0  0  0  0  0
    2.0425    0.1632   -0.0869 C   0  0  0  0  0  0  0  0  0  0  0  0
   -4.6453   -1.3509    0.6771 C   0  0  0  0  0  0  0  0  0  0  0  0
   -5.0966   -2.3259    0.8304 H   0  0  0  0  0  0  0  0  0  0  0  0
   -2.3413   -2.3780    0.9165 C   0  0  0  0  0  0  0  0  0  0  0  0
   -2.7737   -3.3227    0.5623 H   0  0  0  0  0  0  0  0  0  0  0  0
   -2.2472   -2.4623    2.0046 H   0  0  0  0  0  0  0  0  0  0  0  0
    1.5459   -0.9867    0.0052 O   0  0  0  0  0  0  0  0  0  0  0  0
    3.5253    0.4301   -0.2093 C   0  0  0  0  0  0  0  0  0  0  0  0
    3.6517    1.4873   -0.4673 H   0  0  0  0  0  0  0  0  0  0  0  0
    4.1757    0.1657    1.1681 C   0  0  0  0  0  0  0  0  0  0  0  0
    3.9711   -0.8705    1.4649 H   0  0  0  0  0  0  0  0  0  0  0  0
    3.7458    0.8221    1.9386 H   0  0  0  0  0  0  0  0  0  0  0  0
    4.1496   -0.4618   -1.3069 C   0  0  0  0  0  0  0  0  0  0  0  0
    3.6949   -0.2445   -2.2816 H   0  0  0  0  0  0  0  0  0  0  0  0
    3.9356   -1.5109   -1.0686 H   0  0  0  0  0  0  0  0  0  0  0  0
    5.7002    0.4098    1.0876 C   0  0  0  0  0  0  0  0  0  0  0  0
    6.1388    0.1978    2.0685 H   0  0  0  0  0  0  0  0  0  0  0  0
    5.8894    1.4693    0.8725 H   0  0  0  0  0  0  0  0  0  0  0  0
    5.6720   -0.2257   -1.3675 C   0  0  0  0  0  0  0  0  0  0  0  0
    6.0962   -0.8906   -2.1294 H   0  0  0  0  0  0  0  0  0  0  0  0
    5.8692    0.8025   -1.6989 H   0  0  0  0  0  0  0  0  0  0  0  0
    6.3270   -0.4686   -0.0053 C   0  0  0  0  0  0  0  0  0  0  0  0
    6.2282   -1.5268    0.2714 H   0  0  0  0  0  0  0  0  0  0  0  0
    7.4020   -0.2541   -0.0645 H   0  0  0  0  0  0  0  0  0  0  0  0
   -5.4305   -0.2092    0.5173 C   0  0  0  0  0  0  0  0  0  0  0  0
   -6.5137   -0.2803    0.5343 H   0  0  0  0  0  0  0  0  0  0  0  0
   -0.3115    0.2814    2.1003 N   0  0  0  0  0  0  0  0  0  0  0  0
    0.7113    0.6587    2.6610 N   0  3  0  0  0  0  0  0  0  0  0  0
    1.6353    1.0034    3.2431 N   0  5  0  0  0  0  0  0  0  0  0  0
  1 64  1  1  0  0  0
  2  3  1  0  0  0  0
  3 39  2  0  0  0  0
  3 41  1  0  0  0  0
  5 14  1  1  0  0  0
  5 11  1  0  0  0  0
  5  1  9  0  0  0  0
  6 24  1  6  0  0  0
  6  1  9  0  0  0  0
  7 41  1  0  0  0  0
  7 34  1  1  0  0  0
  7  1  9  0  0  0  0
  8 62  2  0  0  0  0
  9  8  1  0  0  0  0
 10  8  1  0  0  0  0
 10  2  1  0  0  0  0
 11 10  1  0  0  0  0
 11 12  1  0  0  0  0
 13 11  1  0  0  0  0
 14 17  1  0  0  0  0
 15 14  1  0  0  0  0
 16 14  1  0  0  0  0
 18  5  1  0  0  0  0
 19 18  1  0  0  0  0
 20 18  1  0  0  0  0
 21 22  1  0  0  0  0
 21  6  1  0  0  0  0
 21 18  1  0  0  0  0
 23 21  1  0  0  0  0
 24 27  1  0  0  0  0
 24 26  1  0  0  0  0
 25 24  1  0  0  0  0
 28  6  1  0  0  0  0
 28 30  1  0  0  0  0
 28 31  1  0  0  0  0
 29 28  1  0  0  0  0
 31  7  1  0  0  0  0
 32 31  1  0  0  0  0
 33 31  1  0  0  0  0
 34 37  1  0  0  0  0
 34 35  1  0  0  0  0
 36 34  1  0  0  0  0
 38  4  1  0  0  0  0
 38 44  2  0  0  0  0
 39 40  1  0  0  0  0
 41 43  1  0  0  0  0
 42 41  1  0  0  0  0
 45 38  1  0  0  0  0
 45 47  1  0  0  0  0
 46 45  1  0  0  0  0
 47 48  1  0  0  0  0
 47 49  1  0  0  0  0
 50 52  1  0  0  0  0
 50 45  1  0  0  0  0
 51 50  1  0  0  0  0
 53 47  1  0  0  0  0
 53 54  1  0  0  0  0
 55 53  1  0  0  0  0
 56 50  1  0  0  0  0
 56 59  1  0  0  0  0
 57 56  1  0  0  0  0
 58 56  1  0  0  0  0
 59 60  1  0  0  0  0
 59 53  1  0  0  0  0
 61 59  1  0  0  0  0
 62 63  1  0  0  0  0
 62 39  1  0  0  0  0
 64 65  2  0  0  0  0
 65 66  2  0  0  0  0
M  RAD  3   1   2   2   2   4   2
M  CHG  4   1   1  10   1  65   1  66  -1
M  END
$$$$
