
 OpenBabel02052520073D

 46 50  0  0  0  0  0  0  0  0999 V2000
   -0.4199   -0.0001   -0.4369 Fe  0  2  0  0  0  0  0  0  0  0  0  0
    0.0111    2.1830   -0.1034 N   0  0  1  0  0  0  0  0  0  0  0  0
   -0.4465   -0.0001    1.7786 N   0  0  1  0  0  0  0  0  0  0  0  0
    0.0119   -2.1830   -0.1032 N   0  0  1  0  0  0  0  0  0  0  0  0
    3.6703    1.2095   -0.2811 C   0  0  0  0  0  0  0  0  0  0  0  0
    4.1930    2.1605   -0.2819 H   0  0  0  0  0  0  0  0  0  0  0  0
    2.2805    1.1752   -0.3366 C   0  0  0  0  0  0  0  0  0  0  0  0
    1.4212    2.3978   -0.5309 C   0  0  0  0  0  0  0  0  0  0  0  0
    1.4101    2.6118   -1.6050 H   0  0  0  0  0  0  0  0  0  0  0  0
    1.8489    3.2746   -0.0297 H   0  0  0  0  0  0  0  0  0  0  0  0
   -0.8982    3.0361   -0.9219 C   0  0  0  0  0  0  0  0  0  0  0  0
   -0.6336    4.0945   -0.8106 H   0  0  0  0  0  0  0  0  0  0  0  0
   -1.9274    2.8816   -0.5995 H   0  0  0  0  0  0  0  0  0  0  0  0
   -0.8072    2.7431   -1.9689 H   0  0  0  0  0  0  0  0  0  0  0  0
   -0.1901    2.4299    1.3539 C   0  0  0  0  0  0  0  0  0  0  0  0
   -1.2565    2.6001    1.5122 H   0  0  0  0  0  0  0  0  0  0  0  0
    0.3322    3.3431    1.6660 H   0  0  0  0  0  0  0  0  0  0  0  0
    0.2884    1.2453    2.1816 C   0  0  0  0  0  0  0  0  0  0  0  0
    1.3562    1.0754    2.0437 H   0  0  0  0  0  0  0  0  0  0  0  0
    0.1202    1.4393    3.2473 H   0  0  0  0  0  0  0  0  0  0  0  0
   -1.7962   -0.0011    2.4310 C   0  0  0  0  0  0  0  0  0  0  0  0
   -1.6603   -0.0014    3.5184 H   0  0  0  0  0  0  0  0  0  0  0  0
   -2.3621   -0.8817    2.1360 H   0  0  0  0  0  0  0  0  0  0  0  0
   -2.3629    0.8792    2.1367 H   0  0  0  0  0  0  0  0  0  0  0  0
    0.2901   -1.2446    2.1815 C   0  0  0  0  0  0  0  0  0  0  0  0
    0.1226   -1.4385    3.2473 H   0  0  0  0  0  0  0  0  0  0  0  0
    1.3576   -1.0734    2.0432 H   0  0  0  0  0  0  0  0  0  0  0  0
   -0.1873   -2.4301    1.3544 C   0  0  0  0  0  0  0  0  0  0  0  0
    0.3369   -3.3423    1.6660 H   0  0  0  0  0  0  0  0  0  0  0  0
   -1.2532   -2.6021    1.5139 H   0  0  0  0  0  0  0  0  0  0  0  0
   -0.8981   -3.0364   -0.9205 C   0  0  0  0  0  0  0  0  0  0  0  0
   -0.8085   -2.7435   -1.9677 H   0  0  0  0  0  0  0  0  0  0  0  0
   -1.9270   -2.8823   -0.5968 H   0  0  0  0  0  0  0  0  0  0  0  0
   -0.6330   -4.0948   -0.8095 H   0  0  0  0  0  0  0  0  0  0  0  0
    4.3700    0.0005   -0.2405 C   0  0  0  0  0  0  0  0  0  0  0  0
    3.6705   -1.2087   -0.2820 C   0  0  0  0  0  0  0  0  0  0  0  0
    4.1934   -2.1597   -0.2834 H   0  0  0  0  0  0  0  0  0  0  0  0
    1.4214   -2.3971   -0.5327 C   0  0  0  0  0  0  0  0  0  0  0  0
    1.8498   -3.2746   -0.0334 H   0  0  0  0  0  0  0  0  0  0  0  0
    1.4090   -2.6091   -1.6071 H   0  0  0  0  0  0  0  0  0  0  0  0
    1.6236    0.0003   -0.3188 N   0  0  0  0  0  0  0  0  0  0  0  0
    2.2807   -1.1746   -0.3374 C   0  0  0  0  0  0  0  0  0  0  0  0
    5.4548    0.0005   -0.1918 H   0  0  0  0  0  0  0  0  0  0  0  0
   -0.1927   -0.0006   -2.1860 O   0  0  0  0  0  0  0  0  0  0  0  0
   -0.9950   -0.0012   -2.7450 H   0  0  0  0  0  0  0  0  0  0  0  0
   -2.7897   -0.0001   -0.6240 Br  0  0  0  0  0  0  0  0  0  0  0  0
  2 11  1  6  0  0  0
  2 15  1  0  0  0  0
  2  1  9  0  0  0  0
  3 25  1  0  0  0  0
  3 18  1  0  0  0  0
  3 21  1  1  0  0  0
  3  1  9  0  0  0  0
  4 31  1  6  0  0  0
  4 28  1  0  0  0  0
  4  1  9  0  0  0  0
  5 35  1  0  0  0  0
  6  5  1  0  0  0  0
  7 41  1  0  0  0  0
  7  5  2  0  0  0  0
  8  7  1  0  0  0  0
  8  2  1  0  0  0  0
  8 10  1  0  0  0  0
  9  8  1  0  0  0  0
 11 12  1  0  0  0  0
 11 13  1  0  0  0  0
 14 11  1  0  0  0  0
 15 16  1  0  0  0  0
 15 17  1  0  0  0  0
 15 18  1  0  0  0  0
 18 20  1  0  0  0  0
 19 18  1  0  0  0  0
 21 22  1  0  0  0  0
 23 21  1  0  0  0  0
 24 21  1  0  0  0  0
 25 26  1  0  0  0  0
 27 25  1  0  0  0  0
 28 30  1  0  0  0  0
 28 29  1  0  0  0  0
 28 25  1  0  0  0  0
 31 34  1  0  0  0  0
 31 33  1  0  0  0  0
 32 31  1  0  0  0  0
 35 43  1  0  0  0  0
 36 35  2  0  0  0  0
 37 36  1  0  0  0  0
 38 42  1  0  0  0  0
 38  4  1  0  0  0  0
 38 39  1  0  0  0  0
 40 38  1  0  0  0  0
 41  1  9  0  0  0  0
 42 41  2  0  0  0  0
 42 36  1  0  0  0  0
 44  1  1  0  0  0  0
 45 44  1  0  0  0  0
 46  1  1  0  0  0  0
M  CHG  1   1   2
M  END
$$$$
