
 OpenBabel02052520073D

 46 50  0  0  0  0  0  0  0  0999 V2000
   -0.7263    0.0003   -0.2198 Fe  0  2  0  0  0  0  0  0  0  0  0  0
   -0.3621    2.1844    0.1683 N   0  0  1  0  0  0  0  0  0  0  0  0
   -0.9852    0.0016    1.9796 N   0  0  1  0  0  0  0  0  0  0  0  0
   -0.3638   -2.1839    0.1709 N   0  0  1  0  0  0  0  0  0  0  0  0
    3.2704    1.2084    0.4335 C   0  0  0  0  0  0  0  0  0  0  0  0
    3.7866    2.1590    0.5198 H   0  0  0  0  0  0  0  0  0  0  0  0
    1.9063    1.1803    0.1656 C   0  0  0  0  0  0  0  0  0  0  0  0
    1.0792    2.4015   -0.1381 C   0  0  0  0  0  0  0  0  0  0  0  0
    1.1638    2.5880   -1.2147 H   0  0  0  0  0  0  0  0  0  0  0  0
    1.4627    3.2889    0.3793 H   0  0  0  0  0  0  0  0  0  0  0  0
   -1.2269    3.0205   -0.7131 C   0  0  0  0  0  0  0  0  0  0  0  0
   -1.0639    4.0860   -0.5116 H   0  0  0  0  0  0  0  0  0  0  0  0
   -2.2701    2.7656   -0.5224 H   0  0  0  0  0  0  0  0  0  0  0  0
   -0.9951    2.8049   -1.7563 H   0  0  0  0  0  0  0  0  0  0  0  0
   -0.6895    2.4321    1.6044 C   0  0  0  0  0  0  0  0  0  0  0  0
   -1.7600    2.6332    1.6631 H   0  0  0  0  0  0  0  0  0  0  0  0
   -0.1740    3.3319    1.9618 H   0  0  0  0  0  0  0  0  0  0  0  0
   -0.3233    1.2402    2.4816 C   0  0  0  0  0  0  0  0  0  0  0  0
    0.7552    1.0745    2.4850 H   0  0  0  0  0  0  0  0  0  0  0  0
   -0.6296    1.4346    3.5170 H   0  0  0  0  0  0  0  0  0  0  0  0
   -2.4364    0.0020    2.3260 C   0  0  0  0  0  0  0  0  0  0  0  0
   -2.5472    0.0023    3.4167 H   0  0  0  0  0  0  0  0  0  0  0  0
   -2.9245   -0.8736    1.9044 H   0  0  0  0  0  0  0  0  0  0  0  0
   -2.9242    0.8775    1.9040 H   0  0  0  0  0  0  0  0  0  0  0  0
   -0.3236   -1.2366    2.4830 C   0  0  0  0  0  0  0  0  0  0  0  0
   -0.6297   -1.4295    3.5187 H   0  0  0  0  0  0  0  0  0  0  0  0
    0.7549   -1.0714    2.4858 H   0  0  0  0  0  0  0  0  0  0  0  0
   -0.6906   -2.4295    1.6075 C   0  0  0  0  0  0  0  0  0  0  0  0
   -0.1752   -3.3290    1.9659 H   0  0  0  0  0  0  0  0  0  0  0  0
   -1.7612   -2.6303    1.6669 H   0  0  0  0  0  0  0  0  0  0  0  0
   -1.2295   -3.0206   -0.7091 C   0  0  0  0  0  0  0  0  0  0  0  0
   -0.9980   -2.8066   -1.7527 H   0  0  0  0  0  0  0  0  0  0  0  0
   -2.2724   -2.7647   -0.5183 H   0  0  0  0  0  0  0  0  0  0  0  0
   -1.0672   -4.0859   -0.5062 H   0  0  0  0  0  0  0  0  0  0  0  0
    3.9559   -0.0012    0.5763 C   0  0  0  0  0  0  0  0  0  0  0  0
    3.2694   -1.2105    0.4347 C   0  0  0  0  0  0  0  0  0  0  0  0
    3.7849   -2.1613    0.5218 H   0  0  0  0  0  0  0  0  0  0  0  0
    1.0772   -2.4023   -0.1360 C   0  0  0  0  0  0  0  0  0  0  0  0
    1.4602   -3.2897    0.3818 H   0  0  0  0  0  0  0  0  0  0  0  0
    1.1612   -2.5894   -1.2125 H   0  0  0  0  0  0  0  0  0  0  0  0
    1.2541   -0.0004    0.0678 N   0  0  0  0  0  0  0  0  0  0  0  0
    1.9054   -1.1815    0.1667 C   0  0  0  0  0  0  0  0  0  0  0  0
    5.0208   -0.0015    0.7882 H   0  0  0  0  0  0  0  0  0  0  0  0
   -2.4607    0.0003   -0.4136 O   0  0  0  0  0  0  0  0  0  0  0  0
   -2.8249   -0.0003   -1.3218 H   0  0  0  0  0  0  0  0  0  0  0  0
   -0.2808   -0.0015   -2.5984 Br  0  0  0  0  0  0  0  0  0  0  0  0
  2 11  1  6  0  0  0
  2 15  1  0  0  0  0
  2  1  9  0  0  0  0
  3 21  1  1  0  0  0
  3 18  1  0  0  0  0
  3 25  1  0  0  0  0
  3  1  9  0  0  0  0
  4 31  1  6  0  0  0
  4 28  1  0  0  0  0
  4  1  9  0  0  0  0
  5  6  1  0  0  0  0
  5 35  1  0  0  0  0
  7  5  2  0  0  0  0
  8  7  1  0  0  0  0
  8  2  1  0  0  0  0
  8 10  1  0  0  0  0
  9  8  1  0  0  0  0
 11 13  1  0  0  0  0
 11 12  1  0  0  0  0
 14 11  1  0  0  0  0
 15 16  1  0  0  0  0
 15 17  1  0  0  0  0
 15 18  1  0  0  0  0
 18 19  1  0  0  0  0
 18 20  1  0  0  0  0
 21 22  1  0  0  0  0
 23 21  1  0  0  0  0
 24 21  1  0  0  0  0
 25 27  1  0  0  0  0
 25 26  1  0  0  0  0
 28 30  1  0  0  0  0
 28 29  1  0  0  0  0
 28 25  1  0  0  0  0
 31 33  1  0  0  0  0
 31 34  1  0  0  0  0
 32 31  1  0  0  0  0
 35 43  1  0  0  0  0
 36 37  1  0  0  0  0
 36 35  2  0  0  0  0
 38 42  1  0  0  0  0
 38  4  1  0  0  0  0
 38 39  1  0  0  0  0
 40 38  1  0  0  0  0
 41  7  1  0  0  0  0
 41 42  2  0  0  0  0
 41  1  9  0  0  0  0
 42 36  1  0  0  0  0
 44  1  1  0  0  0  0
 45 44  1  0  0  0  0
 46  1  1  0  0  0  0
M  CHG  1   1   2
M  END
$$$$
