
 OpenBabel02072512503D

 48 51  0  0  0  0  0  0  0  0999 V2000
    0.5542    0.0002   -0.4519 Fe  0  3  0  0  0 37  0  0  0  0  0  0
    0.1128   -2.1908   -0.1042 N   0  0  1  0  0  0  0  0  0  0  0  0
    0.5131   -0.0012    1.7659 N   0  0  1  0  0  0  0  0  0  0  0  0
    0.1137    2.1909   -0.1012 N   0  0  1  0  0  0  0  0  0  0  0  0
   -3.5297   -1.2079   -0.3739 C   0  0  0  0  0  0  0  0  0  0  0  0
   -4.0530   -2.1585   -0.3760 H   0  0  0  0  0  0  0  0  0  0  0  0
   -2.1393   -1.1756   -0.4151 C   0  0  0  0  0  0  0  0  0  0  0  0
   -1.2784   -2.4025   -0.5857 C   0  0  0  0  0  0  0  0  0  0  0  0
   -1.2287   -2.6104   -1.6599 H   0  0  0  0  0  0  0  0  0  0  0  0
   -1.7307   -3.2789   -0.1057 H   0  0  0  0  0  0  0  0  0  0  0  0
    1.0671   -3.0192   -0.8894 C   0  0  0  0  0  0  0  0  0  0  0  0
    0.8428   -4.0873   -0.7816 H   0  0  0  0  0  0  0  0  0  0  0  0
    2.0806   -2.8267   -0.5345 H   0  0  0  0  0  0  0  0  0  0  0  0
    0.9961   -2.7369   -1.9414 H   0  0  0  0  0  0  0  0  0  0  0  0
    0.2611   -2.4369    1.3580 C   0  0  0  0  0  0  0  0  0  0  0  0
    1.3175   -2.6293    1.5525 H   0  0  0  0  0  0  0  0  0  0  0  0
   -0.2896   -3.3378    1.6570 H   0  0  0  0  0  0  0  0  0  0  0  0
   -0.2196   -1.2413    2.1725 C   0  0  0  0  0  0  0  0  0  0  0  0
   -1.2865   -1.0725    2.0211 H   0  0  0  0  0  0  0  0  0  0  0  0
   -0.0643   -1.4308    3.2414 H   0  0  0  0  0  0  0  0  0  0  0  0
    1.8819   -0.0013    2.3631 C   0  0  0  0  0  0  0  0  0  0  0  0
    1.7993   -0.0018    3.4560 H   0  0  0  0  0  0  0  0  0  0  0  0
    2.4360    0.8769    2.0385 H   0  0  0  0  0  0  0  0  0  0  0  0
    2.4362   -0.8791    2.0377 H   0  0  0  0  0  0  0  0  0  0  0  0
   -0.2201    1.2380    2.1741 C   0  0  0  0  0  0  0  0  0  0  0  0
   -0.0652    1.4260    3.2434 H   0  0  0  0  0  0  0  0  0  0  0  0
   -1.2869    1.0691    2.0222 H   0  0  0  0  0  0  0  0  0  0  0  0
    0.2603    2.4351    1.3616 C   0  0  0  0  0  0  0  0  0  0  0  0
   -0.2915    3.3351    1.6612 H   0  0  0  0  0  0  0  0  0  0  0  0
    1.3163    2.6283    1.5575 H   0  0  0  0  0  0  0  0  0  0  0  0
    1.0692    3.0198   -0.8842 C   0  0  0  0  0  0  0  0  0  0  0  0
    0.9996    2.7386   -1.9365 H   0  0  0  0  0  0  0  0  0  0  0  0
    2.0823    2.8268   -0.5282 H   0  0  0  0  0  0  0  0  0  0  0  0
    0.8451    4.0879   -0.7756 H   0  0  0  0  0  0  0  0  0  0  0  0
   -4.2292    0.0014   -0.3424 C   0  3  0  0  0  0  0  0  0  0  0  0
   -3.5289    1.2104   -0.3732 C   0  0  0  0  0  3  0  0  0  0  0  0
   -4.0517    2.1613   -0.3746 H   0  0  0  0  0  0  0  0  0  0  0  0
   -1.2768    2.4035   -0.5841 C   0  0  0  0  0  0  0  0  0  0  0  0
   -1.7290    3.2804   -0.1048 H   0  0  0  0  0  0  0  0  0  0  0  0
   -1.2256    2.6111   -1.6584 H   0  0  0  0  0  0  0  0  0  0  0  0
   -1.4816    0.0006   -0.3985 N   0  0  0  0  0  0  0  0  0  0  0  0
   -2.1386    1.1772   -0.4143 C   0  0  0  0  0  0  0  0  0  0  0  0
   -5.3143    0.0018   -0.3047 H   0  0  0  0  0  0  0  0  0  0  0  0
    0.4096    0.0023   -2.2131 O   0  0  0  0  0  1  0  0  0  0  0  0
    1.1889   -0.0024   -2.8016 H   0  0  0  0  0  0  0  0  0  0  0  0
    2.3859   -0.0004   -0.3926 N   0  0  0  0  0  0  0  0  0  0  0  0
    3.1629    0.0023   -1.3517 N   0  3  0  0  0  0  0  0  0  0  0  0
    3.9355    0.0052   -2.1912 N   0  5  0  0  0  0  0  0  0  0  0  0
  1 46  1  0  0  0  0
  2 11  1  6  0  0  0
  2 15  1  0  0  0  0
  2  1  9  0  0  0  0
  3 18  1  0  0  0  0
  3 25  1  0  0  0  0
  3 21  1  1  0  0  0
  3  1  9  0  0  0  0
  4 31  1  6  0  0  0
  4 28  1  0  0  0  0
  4  1  9  0  0  0  0
  5 35  1  0  0  0  0
  6  5  1  0  0  0  0
  7 41  1  0  0  0  0
  7  5  2  0  0  0  0
  8  7  1  0  0  0  0
  8 10  1  0  0  0  0
  8  2  1  0  0  0  0
  9  8  1  0  0  0  0
 11 12  1  0  0  0  0
 11 13  1  0  0  0  0
 14 11  1  0  0  0  0
 15 16  1  0  0  0  0
 15 17  1  0  0  0  0
 15 18  1  0  0  0  0
 18 20  1  0  0  0  0
 19 18  1  0  0  0  0
 21 22  1  0  0  0  0
 23 21  1  0  0  0  0
 24 21  1  0  0  0  0
 25 26  1  0  0  0  0
 27 25  1  0  0  0  0
 28 30  1  0  0  0  0
 28 29  1  0  0  0  0
 28 25  1  0  0  0  0
 31 34  1  0  0  0  0
 31 33  1  0  0  0  0
 32 31  1  0  0  0  0
 35 43  1  0  0  0  0
 36 35  1  0  0  0  0
 37 36  1  0  0  0  0
 38 42  1  0  0  0  0
 38 39  1  0  0  0  0
 38  4  1  0  0  0  0
 40 38  1  0  0  0  0
 41  1  9  0  0  0  0
 42 41  2  0  0  0  0
 42 36  1  0  0  0  0
 45 44  1  0  0  0  0
 47 46  2  0  0  0  0
 48 47  2  0  0  0  0
M  RAD  3   1   2  36   2  44   2
M  CHG  4   1   1  35   1  47   1  48  -1
M  END
$$$$
