
 OpenBabel02052520073D

 48 52  0  0  0  0  0  0  0  0999 V2000
    0.1124   -0.6970    0.0000 Fe  0  2  0  0  0  0  0  0  0  0  0  0
    0.2751   -0.3813    2.0443 N   0  0  1  0  0  0  0  0  0  0  0  0
    2.1784   -0.6978   -0.0001 N   0  0  1  0  0  0  0  0  0  0  0  0
    0.2749   -0.3814   -2.0443 N   0  0  1  0  0  0  0  0  0  0  0  0
   -0.0564    3.3181    1.2131 C   0  0  0  0  0  0  0  0  0  0  0  0
   -0.0895    3.8446    2.1613 H   0  0  0  0  0  0  0  0  0  0  0  0
   -0.0452    1.9272    1.1745 C   0  0  0  0  0  0  0  0  0  0  0  0
   -0.2337    1.0028    2.3479 C   0  0  0  0  0  0  0  0  0  0  0  0
   -1.3107    0.9224    2.5289 H   0  0  0  0  0  0  0  0  0  0  0  0
    0.2211    1.3841    3.2683 H   0  0  0  0  0  0  0  0  0  0  0  0
   -0.4939   -1.3876    2.8368 C   0  0  0  0  0  0  0  0  0  0  0  0
   -0.3393   -1.2224    3.9091 H   0  0  0  0  0  0  0  0  0  0  0  0
   -0.1506   -2.3829    2.5563 H   0  0  0  0  0  0  0  0  0  0  0  0
   -1.5545   -1.2965    2.6025 H   0  0  0  0  0  0  0  0  0  0  0  0
    1.7376   -0.5015    2.3840 C   0  0  0  0  0  0  0  0  0  0  0  0
    1.9419   -1.5584    2.5555 H   0  0  0  0  0  0  0  0  0  0  0  0
    1.9500    0.0278    3.3192 H   0  0  0  0  0  0  0  0  0  0  0  0
    2.5857    0.0264    1.2415 C   0  0  0  0  0  0  0  0  0  0  0  0
    2.4267    1.0957    1.0922 H   0  0  0  0  0  0  0  0  0  0  0  0
    3.6513   -0.1251    1.4488 H   0  0  0  0  0  0  0  0  0  0  0  0
    2.8045   -2.0610   -0.0001 C   0  0  0  0  0  0  0  0  0  0  0  0
    3.8941   -1.9497   -0.0002 H   0  0  0  0  0  0  0  0  0  0  0  0
    2.4847   -2.6248   -0.8715 H   0  0  0  0  0  0  0  0  0  0  0  0
    2.4848   -2.6248    0.8713 H   0  0  0  0  0  0  0  0  0  0  0  0
    2.5855    0.0264   -1.2417 C   0  0  0  0  0  0  0  0  0  0  0  0
    3.6511   -0.1251   -1.4492 H   0  0  0  0  0  0  0  0  0  0  0  0
    2.4265    1.0957   -1.0924 H   0  0  0  0  0  0  0  0  0  0  0  0
    1.7374   -0.5015   -2.3841 C   0  0  0  0  0  0  0  0  0  0  0  0
    1.9496    0.0278   -3.3194 H   0  0  0  0  0  0  0  0  0  0  0  0
    1.9416   -1.5584   -2.5557 H   0  0  0  0  0  0  0  0  0  0  0  0
   -0.4942   -1.3877   -2.8367 C   0  0  0  0  0  0  0  0  0  0  0  0
   -1.5547   -1.2966   -2.6022 H   0  0  0  0  0  0  0  0  0  0  0  0
   -0.1507   -2.3830   -2.5562 H   0  0  0  0  0  0  0  0  0  0  0  0
   -0.3397   -1.2225   -3.9090 H   0  0  0  0  0  0  0  0  0  0  0  0
   -0.0394    4.0153   -0.0001 C   0  0  0  0  0  0  0  0  0  0  0  0
   -0.0566    3.3180   -1.2132 C   0  0  0  0  0  0  0  0  0  0  0  0
   -0.0898    3.8445   -2.1614 H   0  0  0  0  0  0  0  0  0  0  0  0
   -0.2340    1.0027   -2.3479 C   0  0  0  0  0  0  0  0  0  0  0  0
    0.2205    1.3840   -3.2684 H   0  0  0  0  0  0  0  0  0  0  0  0
   -1.3111    0.9222   -2.5287 H   0  0  0  0  0  0  0  0  0  0  0  0
    0.0117    1.2787   -0.0000 N   0  0  0  0  0  0  0  0  0  0  0  0
   -0.0454    1.9271   -1.1745 C   0  0  0  0  0  0  0  0  0  0  0  0
   -0.0372    5.1010   -0.0001 H   0  0  0  0  0  0  0  0  0  0  0  0
    0.1863   -2.4684    0.0001 O   0  0  0  0  0  0  0  0  0  0  0  0
   -0.7096   -2.8536    0.0000 H   0  0  0  0  0  0  0  0  0  0  0  0
   -1.7840   -0.7127    0.0001 N   0  0  0  0  0  0  0  0  0  0  0  0
   -2.9735   -0.7339    0.0002 C   0  0  0  0  0  0  0  0  0  0  0  0
   -4.5863   -0.7650    0.0001 S   0  0  0  0  0  0  0  0  0  0  0  0
  1 44  1  0  0  0  0
  1 46  1  0  0  0  0
  2  8  1  0  0  0  0
  2 15  1  0  0  0  0
  2 11  1  1  0  0  0
  2  1  9  0  0  0  0
  3 21  1  6  0  0  0
  3 18  1  0  0  0  0
  3  1  9  0  0  0  0
  4 31  1  6  0  0  0
  4  1  9  0  0  0  0
  5  6  1  0  0  0  0
  7  5  1  0  0  0  0
  7  8  1  0  0  0  0
  8  9  1  0  0  0  0
  8 10  1  0  0  0  0
 11 12  1  0  0  0  0
 13 11  1  0  0  0  0
 14 11  1  0  0  0  0
 15 16  1  0  0  0  0
 15 17  1  0  0  0  0
 18 20  1  0  0  0  0
 18 15  1  0  0  0  0
 19 18  1  0  0  0  0
 21 24  1  0  0  0  0
 22 21  1  0  0  0  0
 23 21  1  0  0  0  0
 25 27  1  0  0  0  0
 25  3  1  0  0  0  0
 26 25  1  0  0  0  0
 28  4  1  0  0  0  0
 28 25  1  0  0  0  0
 29 28  1  0  0  0  0
 30 28  1  0  0  0  0
 31 32  1  0  0  0  0
 31 33  1  0  0  0  0
 34 31  1  0  0  0  0
 35  5  2  0  0  0  0
 36 42  2  0  0  0  0
 36 35  1  0  0  0  0
 37 36  1  0  0  0  0
 38  4  1  0  0  0  0
 38 42  1  0  0  0  0
 39 38  1  0  0  0  0
 40 38  1  0  0  0  0
 41  7  2  0  0  0  0
 41  1  9  0  0  0  0
 42 41  1  0  0  0  0
 43 35  1  0  0  0  0
 45 44  1  0  0  0  0
 46 47  2  0  0  0  0
 48 47  2  0  0  0  0
M  CHG  1   1   2
M  END
$$$$
