
 OpenBabel02052520073D

 46 50  0  0  0  0  0  0  0  0999 V2000
   -0.7154   -0.0002   -0.6799 Fe  0  2  0  0  0  0  0  0  0  0  0  0
   -0.3630    2.2006   -0.2548 N   0  0  1  0  0  0  0  0  0  0  0  0
   -1.1732   -0.0001    1.4405 N   0  0  1  0  0  0  0  0  0  0  0  0
   -0.3619   -2.2009   -0.2547 N   0  0  1  0  0  0  0  0  0  0  0  0
    3.2479    1.2103    0.2793 C   0  0  0  0  0  0  0  0  0  0  0  0
    3.7588    2.1611    0.3910 H   0  0  0  0  0  0  0  0  0  0  0  0
    1.8998    1.1791   -0.0628 C   0  0  0  0  0  0  0  0  0  0  0  0
    1.0990    2.4106   -0.4145 C   0  0  0  0  0  0  0  0  0  0  0  0
    1.2903    2.6270   -1.4710 H   0  0  0  0  0  0  0  0  0  0  0  0
    1.4349    3.2807    0.1623 H   0  0  0  0  0  0  0  0  0  0  0  0
   -1.1438    2.9833   -1.2525 C   0  0  0  0  0  0  0  0  0  0  0  0
   -1.0282    4.0600   -1.0800 H   0  0  0  0  0  0  0  0  0  0  0  0
   -2.1965    2.7076   -1.1711 H   0  0  0  0  0  0  0  0  0  0  0  0
   -0.7899    2.7307   -2.2530 H   0  0  0  0  0  0  0  0  0  0  0  0
   -0.8448    2.4442    1.1349 C   0  0  0  0  0  0  0  0  0  0  0  0
   -1.9151    2.6496    1.0810 H   0  0  0  0  0  0  0  0  0  0  0  0
   -0.3681    3.3375    1.5572 H   0  0  0  0  0  0  0  0  0  0  0  0
   -0.5721    1.2401    2.0292 C   0  0  0  0  0  0  0  0  0  0  0  0
    0.5002    1.0747    2.1422 H   0  0  0  0  0  0  0  0  0  0  0  0
   -0.9891    1.4103    3.0290 H   0  0  0  0  0  0  0  0  0  0  0  0
   -2.6587   -0.0002    1.6292 C   0  0  0  0  0  0  0  0  0  0  0  0
   -2.8810   -0.0000    2.7019 H   0  0  0  0  0  0  0  0  0  0  0  0
   -3.0973   -0.8768    1.1589 H   0  0  0  0  0  0  0  0  0  0  0  0
   -3.0975    0.8763    1.1586 H   0  0  0  0  0  0  0  0  0  0  0  0
   -0.5718   -1.2402    2.0291 C   0  0  0  0  0  0  0  0  0  0  0  0
   -0.9889   -1.4105    3.0289 H   0  0  0  0  0  0  0  0  0  0  0  0
    0.5004   -1.0745    2.1422 H   0  0  0  0  0  0  0  0  0  0  0  0
   -0.8442   -2.4444    1.1349 C   0  0  0  0  0  0  0  0  0  0  0  0
   -0.3675   -3.3376    1.5574 H   0  0  0  0  0  0  0  0  0  0  0  0
   -1.9144   -2.6499    1.0806 H   0  0  0  0  0  0  0  0  0  0  0  0
   -1.1419   -2.9843   -1.2525 C   0  0  0  0  0  0  0  0  0  0  0  0
   -0.7877   -2.7318   -2.2529 H   0  0  0  0  0  0  0  0  0  0  0  0
   -2.1949   -2.7091   -1.1715 H   0  0  0  0  0  0  0  0  0  0  0  0
   -1.0258   -4.0609   -1.0797 H   0  0  0  0  0  0  0  0  0  0  0  0
    3.9246    0.0010    0.4609 C   0  0  0  0  0  0  0  0  0  0  0  0
    3.2485   -1.2086    0.2796 C   0  0  0  0  0  0  0  0  0  0  0  0
    3.7599   -2.1592    0.3917 H   0  0  0  0  0  0  0  0  0  0  0  0
    1.1003   -2.4103   -0.4137 C   0  0  0  0  0  0  0  0  0  0  0  0
    1.4363   -3.2799    0.1637 H   0  0  0  0  0  0  0  0  0  0  0  0
    1.2920   -2.6274   -1.4700 H   0  0  0  0  0  0  0  0  0  0  0  0
    1.2564    0.0002   -0.1888 N   0  0  0  0  0  0  0  0  0  0  0  0
    1.9004   -1.1783   -0.0624 C   0  0  0  0  0  0  0  0  0  0  0  0
    4.9760    0.0013    0.7319 H   0  0  0  0  0  0  0  0  0  0  0  0
   -0.1931    0.0000   -2.3566 O   0  0  0  0  0  0  0  0  0  0  0  0
   -0.9568   -0.0003   -2.9721 H   0  0  0  0  0  0  0  0  0  0  0  0
   -2.3970   -0.0007   -1.0373 F   0  0  0  0  0  0  0  0  0  0  0  0
  2 11  1  6  0  0  0
  2 15  1  0  0  0  0
  2  1  9  0  0  0  0
  3 21  1  1  0  0  0
  3 25  1  0  0  0  0
  3 18  1  0  0  0  0
  3  1  9  0  0  0  0
  4 31  1  6  0  0  0
  4 28  1  0  0  0  0
  4  1  9  0  0  0  0
  5  6  1  0  0  0  0
  5 35  1  0  0  0  0
  7  5  2  0  0  0  0
  8  2  1  0  0  0  0
  8  7  1  0  0  0  0
  8 10  1  0  0  0  0
  9  8  1  0  0  0  0
 11 13  1  0  0  0  0
 11 12  1  0  0  0  0
 14 11  1  0  0  0  0
 15 17  1  0  0  0  0
 15 18  1  0  0  0  0
 16 15  1  0  0  0  0
 18 19  1  0  0  0  0
 18 20  1  0  0  0  0
 21 22  1  0  0  0  0
 23 21  1  0  0  0  0
 24 21  1  0  0  0  0
 25 27  1  0  0  0  0
 25 26  1  0  0  0  0
 28 29  1  0  0  0  0
 28 25  1  0  0  0  0
 30 28  1  0  0  0  0
 31 33  1  0  0  0  0
 31 34  1  0  0  0  0
 32 31  1  0  0  0  0
 35 43  1  0  0  0  0
 36 37  1  0  0  0  0
 36 35  2  0  0  0  0
 38  4  1  0  0  0  0
 38 42  1  0  0  0  0
 38 39  1  0  0  0  0
 40 38  1  0  0  0  0
 41  7  1  0  0  0  0
 41 42  2  0  0  0  0
 41  1  9  0  0  0  0
 42 36  1  0  0  0  0
 44  1  1  0  0  0  0
 45 44  1  0  0  0  0
 46  1  1  0  0  0  0
M  CHG  1   1   2
M  END
$$$$
