
 OpenBabel02052520073D

 51 55  0  0  0  0  0  0  0  0999 V2000
    0.1451   -0.8552    0.0000 Fe  0  2  0  0  0  0  0  0  0  0  0  0
   -0.1515   -0.3563   -2.1580 N   0  0  1  0  0  0  0  0  0  0  0  0
   -2.0571   -0.8429    0.0022 N   0  0  1  0  0  0  0  0  0  0  0  0
   -0.1475   -0.3544    2.1583 N   0  0  1  0  0  0  0  0  0  0  0  0
   -0.1544    3.3025   -1.2118 C   0  0  0  0  0  0  0  0  0  0  0  0
   -0.2372    3.8210   -2.1614 H   0  0  0  0  0  0  0  0  0  0  0  0
    0.0544    1.9265   -1.1722 C   0  0  0  0  0  0  0  0  0  0  0  0
    0.2607    1.0590   -2.3927 C   0  0  0  0  0  0  0  0  0  0  0  0
    1.3325    1.0560   -2.6191 H   0  0  0  0  0  0  0  0  0  0  0  0
   -0.2498    1.4733   -3.2705 H   0  0  0  0  0  0  0  0  0  0  0  0
    0.6644   -1.2805   -2.9936 C   0  0  0  0  0  0  0  0  0  0  0  0
    0.5146   -1.0861   -4.0625 H   0  0  0  0  0  0  0  0  0  0  0  0
    0.3803   -2.3071   -2.7597 H   0  0  0  0  0  0  0  0  0  0  0  0
    1.7184   -1.1458   -2.7428 H   0  0  0  0  0  0  0  0  0  0  0  0
   -1.6104   -0.5722   -2.4180 C   0  0  0  0  0  0  0  0  0  0  0  0
   -1.7492   -1.6387   -2.6031 H   0  0  0  0  0  0  0  0  0  0  0  0
   -1.9173   -0.0449   -3.3299 H   0  0  0  0  0  0  0  0  0  0  0  0
   -2.4726   -0.1280   -1.2392 C   0  0  0  0  0  0  0  0  0  0  0  0
   -2.3649    0.9449   -1.0683 H   0  0  0  0  0  0  0  0  0  0  0  0
   -3.5299   -0.3218   -1.4599 H   0  0  0  0  0  0  0  0  0  0  0  0
   -2.5768   -2.2420    0.0043 C   0  0  0  0  0  0  0  0  0  0  0  0
   -3.6733   -2.2343    0.0060 H   0  0  0  0  0  0  0  0  0  0  0  0
   -2.2059   -2.7745    0.8778 H   0  0  0  0  0  0  0  0  0  0  0  0
   -2.2086   -2.7760   -0.8694 H   0  0  0  0  0  0  0  0  0  0  0  0
   -2.4700   -0.1253    1.2428 C   0  0  0  0  0  0  0  0  0  0  0  0
   -3.5271   -0.3179    1.4657 H   0  0  0  0  0  0  0  0  0  0  0  0
   -2.3619    0.9471    1.0697 H   0  0  0  0  0  0  0  0  0  0  0  0
   -1.6062   -0.5679    2.4212 C   0  0  0  0  0  0  0  0  0  0  0  0
   -1.9109   -0.0381    3.3324 H   0  0  0  0  0  0  0  0  0  0  0  0
   -1.7462   -1.6337    2.6091 H   0  0  0  0  0  0  0  0  0  0  0  0
    0.6685   -1.2790    2.9933 C   0  0  0  0  0  0  0  0  0  0  0  0
    1.7223   -1.1460    2.7406 H   0  0  0  0  0  0  0  0  0  0  0  0
    0.3827   -2.3054    2.7609 H   0  0  0  0  0  0  0  0  0  0  0  0
    0.5209   -1.0834    4.0623 H   0  0  0  0  0  0  0  0  0  0  0  0
   -0.2592    3.9943   -0.0012 C   0  0  0  0  0  0  0  0  0  0  0  0
   -0.1510    3.3032    1.2096 C   0  0  0  0  0  0  0  0  0  0  0  0
   -0.2312    3.8224    2.1591 H   0  0  0  0  0  0  0  0  0  0  0  0
    0.2674    1.0604    2.3907 C   0  0  0  0  0  0  0  0  0  0  0  0
   -0.2393    1.4759    3.2701 H   0  0  0  0  0  0  0  0  0  0  0  0
    1.3400    1.0560    2.6130 H   0  0  0  0  0  0  0  0  0  0  0  0
    0.1475    1.2739   -0.0009 N   0  0  0  0  0  0  0  0  0  0  0  0
    0.0576    1.9273    1.1704 C   0  0  0  0  0  0  0  0  0  0  0  0
    2.4109   -0.5991   -0.0012 N   0  0  0  0  0  0  0  0  0  0  0  0
    3.5699   -0.5735   -0.0022 C   0  0  0  0  0  0  0  0  0  0  0  0
    5.0266   -0.5453   -0.0034 C   0  0  0  0  0  0  0  0  0  0  0  0
    5.4082   -1.0562    0.8872 H   0  0  0  0  0  0  0  0  0  0  0  0
    5.4066   -1.0559   -0.8950 H   0  0  0  0  0  0  0  0  0  0  0  0
    5.3821    0.4904   -0.0036 H   0  0  0  0  0  0  0  0  0  0  0  0
    0.3256   -2.6367    0.0002 O   0  0  0  0  0  0  0  0  0  0  0  0
   -0.4300    5.0666   -0.0013 H   0  0  0  0  0  0  0  0  0  0  0  0
    1.0677   -3.2622    0.0002 H   0  0  0  0  0  0  0  0  0  0  0  0
  1 49  1  0  0  0  0
  2 11  1  6  0  0  0
  2  1  9  0  0  0  0
  3 21  1  1  0  0  0
  3 25  1  0  0  0  0
  3  1  9  0  0  0  0
  4 38  1  0  0  0  0
  4 28  1  0  0  0  0
  4 31  1  1  0  0  0
  4  1  9  0  0  0  0
  5  7  2  0  0  0  0
  5 35  1  0  0  0  0
  6  5  1  0  0  0  0
  7 41  1  0  0  0  0
  8  2  1  0  0  0  0
  8  7  1  0  0  0  0
  9  8  1  0  0  0  0
 10  8  1  0  0  0  0
 11 13  1  0  0  0  0
 11 14  1  0  0  0  0
 12 11  1  0  0  0  0
 15  2  1  0  0  0  0
 15 18  1  0  0  0  0
 16 15  1  0  0  0  0
 17 15  1  0  0  0  0
 18 19  1  0  0  0  0
 18  3  1  0  0  0  0
 20 18  1  0  0  0  0
 21 22  1  0  0  0  0
 21 23  1  0  0  0  0
 24 21  1  0  0  0  0
 25 26  1  0  0  0  0
 25 28  1  0  0  0  0
 27 25  1  0  0  0  0
 28 30  1  0  0  0  0
 28 29  1  0  0  0  0
 31 34  1  0  0  0  0
 32 31  1  0  0  0  0
 33 31  1  0  0  0  0
 35 36  2  0  0  0  0
 36 37  1  0  0  0  0
 38 40  1  0  0  0  0
 38 39  1  0  0  0  0
 41 42  2  0  0  0  0
 41  1  9  0  0  0  0
 42 36  1  0  0  0  0
 42 38  1  0  0  0  0
 43  1  9  0  0  0  0
 44 43  3  0  0  0  0
 45 44  1  0  0  0  0
 45 46  1  0  0  0  0
 47 45  1  0  0  0  0
 48 45  1  0  0  0  0
 49 51  1  0  0  0  0
 50 35  1  0  0  0  0
M  CHG  1   1   2
M  END
$$$$
