
 OpenBabel02072512503D

 48 51  0  0  0  0  0  0  0  0999 V2000
    0.4549    0.0002   -0.5511 Fe  0  3  0  0  0 37  0  0  0  0  0  0
    0.0277   -2.1941   -0.1845 N   0  0  1  0  0  0  0  0  0  0  0  0
    0.5485    0.0008    1.6524 N   0  0  1  0  0  0  0  0  0  0  0  0
    0.0254    2.1944   -0.1854 N   0  0  1  0  0  0  0  0  0  0  0  0
   -3.6195   -1.2106   -0.1961 C   0  0  0  0  0  0  0  0  0  0  0  0
   -4.1402   -2.1617   -0.1536 H   0  0  0  0  0  0  0  0  0  0  0  0
   -2.2366   -1.1784   -0.3449 C   0  0  0  0  0  0  0  0  0  0  0  0
   -1.3920   -2.4082   -0.5696 C   0  0  0  0  0  0  0  0  0  0  0  0
   -1.4167   -2.6231   -1.6435 H   0  0  0  0  0  0  0  0  0  0  0  0
   -1.8136   -3.2807   -0.0557 H   0  0  0  0  0  0  0  0  0  0  0  0
    0.9383   -3.0234   -1.0191 C   0  0  0  0  0  0  0  0  0  0  0  0
    0.7730   -4.0925   -0.8394 H   0  0  0  0  0  0  0  0  0  0  0  0
    1.9702   -2.7674   -0.7742 H   0  0  0  0  0  0  0  0  0  0  0  0
    0.7573   -2.8037   -2.0727 H   0  0  0  0  0  0  0  0  0  0  0  0
    0.2744   -2.4349    1.2659 C   0  0  0  0  0  0  0  0  0  0  0  0
    1.3416   -2.6268    1.3881 H   0  0  0  0  0  0  0  0  0  0  0  0
   -0.2545   -3.3355    1.6025 H   0  0  0  0  0  0  0  0  0  0  0  0
   -0.1493   -1.2388    2.1111 C   0  0  0  0  0  0  0  0  0  0  0  0
   -1.2250   -1.0725    2.0380 H   0  0  0  0  0  0  0  0  0  0  0  0
    0.0835   -1.4279    3.1661 H   0  0  0  0  0  0  0  0  0  0  0  0
    1.9638    0.0019    2.1270 C   0  0  0  0  0  0  0  0  0  0  0  0
    1.9755    0.0021    3.2232 H   0  0  0  0  0  0  0  0  0  0  0  0
    2.4864    0.8780    1.7508 H   0  0  0  0  0  0  0  0  0  0  0  0
    2.4876   -0.8737    1.7511 H   0  0  0  0  0  0  0  0  0  0  0  0
   -0.1510    1.2396    2.1106 C   0  0  0  0  0  0  0  0  0  0  0  0
    0.0813    1.4294    3.1656 H   0  0  0  0  0  0  0  0  0  0  0  0
   -1.2265    1.0718    2.0373 H   0  0  0  0  0  0  0  0  0  0  0  0
    0.2712    2.4360    1.2650 C   0  0  0  0  0  0  0  0  0  0  0  0
   -0.2593    3.3359    1.6011 H   0  0  0  0  0  0  0  0  0  0  0  0
    1.3380    2.6296    1.3876 H   0  0  0  0  0  0  0  0  0  0  0  0
    0.9355    3.0242   -1.0200 C   0  0  0  0  0  0  0  0  0  0  0  0
    0.7552    2.8038   -2.0735 H   0  0  0  0  0  0  0  0  0  0  0  0
    1.9675    2.7696   -0.7744 H   0  0  0  0  0  0  0  0  0  0  0  0
    0.7688    4.0933   -0.8408 H   0  0  0  0  0  0  0  0  0  0  0  0
   -4.3159   -0.0021   -0.1125 C   0  3  0  0  0  0  0  0  0  0  0  0
   -3.6206    1.2072   -0.1968 C   0  0  0  0  0  3  0  0  0  0  0  0
   -4.1424    2.1578   -0.1550 H   0  0  0  0  0  0  0  0  0  0  0  0
   -1.3943    2.4066   -0.5713 C   0  0  0  0  0  0  0  0  0  0  0  0
   -1.8170    3.2793   -0.0585 H   0  0  0  0  0  0  0  0  0  0  0  0
   -1.4187    2.6204   -1.6455 H   0  0  0  0  0  0  0  0  0  0  0  0
   -1.5789   -0.0008   -0.3844 N   0  0  0  0  0  0  0  0  0  0  0  0
   -2.2378    1.1762   -0.3457 C   0  0  0  0  0  0  0  0  0  0  0  0
   -5.3948   -0.0025    0.0092 H   0  0  0  0  0  0  0  0  0  0  0  0
    2.2090    0.0010   -0.5733 O   0  0  0  0  0  1  0  0  0  0  0  0
    2.7383    0.0005   -1.3937 H   0  0  0  0  0  0  0  0  0  0  0  0
    0.2092   -0.0001   -2.3853 N   0  0  0  0  0  0  0  0  0  0  0  0
    1.1102    0.0001   -3.2307 N   0  3  0  0  0  0  0  0  0  0  0  0
    1.8877    0.0002   -4.0668 N   0  5  0  0  0  0  0  0  0  0  0  0
  1 46  1  0  0  0  0
  2 11  1  6  0  0  0
  2 15  1  0  0  0  0
  2  1  9  0  0  0  0
  3 25  1  0  0  0  0
  3 18  1  0  0  0  0
  3 21  1  1  0  0  0
  3  1  9  0  0  0  0
  4 31  1  6  0  0  0
  4 28  1  0  0  0  0
  4  1  9  0  0  0  0
  5  6  1  0  0  0  0
  5 35  1  0  0  0  0
  7  5  2  0  0  0  0
  8  7  1  0  0  0  0
  8  2  1  0  0  0  0
  8 10  1  0  0  0  0
  9  8  1  0  0  0  0
 11 12  1  0  0  0  0
 11 13  1  0  0  0  0
 14 11  1  0  0  0  0
 15 16  1  0  0  0  0
 15 17  1  0  0  0  0
 15 18  1  0  0  0  0
 18 20  1  0  0  0  0
 19 18  1  0  0  0  0
 21 22  1  0  0  0  0
 23 21  1  0  0  0  0
 24 21  1  0  0  0  0
 25 26  1  0  0  0  0
 27 25  1  0  0  0  0
 28 30  1  0  0  0  0
 28 29  1  0  0  0  0
 28 25  1  0  0  0  0
 31 34  1  0  0  0  0
 31 33  1  0  0  0  0
 32 31  1  0  0  0  0
 35 43  1  0  0  0  0
 36 37  1  0  0  0  0
 36 35  1  0  0  0  0
 38 42  1  0  0  0  0
 38  4  1  0  0  0  0
 38 39  1  0  0  0  0
 40 38  1  0  0  0  0
 41 42  2  0  0  0  0
 41  7  1  0  0  0  0
 41  1  9  0  0  0  0
 42 36  1  0  0  0  0
 45 44  1  0  0  0  0
 47 46  2  0  0  0  0
 48 47  2  0  0  0  0
M  RAD  3   1   2  36   2  44   2
M  CHG  4   1   1  35   1  47   1  48  -1
M  END
$$$$
