
 OpenBabel02052520083D

 88 96  0  0  0  0  0  0  0  0999 V2000
   -0.5377    0.4645   -0.0512 Fe  0  3  0  0  0  0  0  0  0  0  0  0
   -0.5049    1.6654    1.3728 O   0  0  0  0  0  0  0  0  0  0  0  0
    0.1717    1.6843   -1.3425 O   0  0  0  0  0  0  0  0  0  0  0  0
    1.3666    2.7666   -1.0433 S   0  0  0  0  0  0  0  0  0  0  0  0
   -0.7334   -1.1842   -1.6618 N   0  0  0  0  0  0  0  0  0  0  0  0
   -1.8360   -1.9869   -1.6285 N   0  0  0  0  0  0  0  0  0  0  0  0
   -1.7321   -2.9808   -2.5484 C   0  0  0  0  0  0  0  0  0  0  0  0
   -0.5179   -2.8171   -3.1989 C   0  0  0  0  0  0  0  0  0  0  0  0
    0.0726   -1.6800   -2.6182 C   0  0  0  0  0  0  0  0  0  0  0  0
   -2.7825   -4.0254   -2.7656 C   0  0  0  0  0  0  0  0  0  0  0  0
   -3.7614   -3.5783   -2.9686 H   0  0  0  0  0  0  0  0  0  0  0  0
   -2.8973   -4.6759   -1.8911 H   0  0  0  0  0  0  0  0  0  0  0  0
   -2.5064   -4.6507   -3.6193 H   0  0  0  0  0  0  0  0  0  0  0  0
   -0.1216   -3.4147   -4.0070 H   0  0  0  0  0  0  0  0  0  0  0  0
   -2.7033    0.6658   -0.3496 N   0  0  0  0  0  0  0  0  0  0  0  0
   -3.4866   -0.4468   -0.4579 N   0  0  0  0  0  0  0  0  0  0  0  0
   -4.7943   -0.1210   -0.2930 C   0  0  0  0  0  0  0  0  0  0  0  0
   -4.8580    1.2464   -0.0762 C   0  0  0  0  0  0  0  0  0  0  0  0
   -3.5283    1.7047   -0.1157 C   0  0  0  0  0  0  0  0  0  0  0  0
   -5.9093   -1.1184   -0.3496 C   0  0  0  0  0  0  0  0  0  0  0  0
   -5.9085   -1.6751   -1.2929 H   0  0  0  0  0  0  0  0  0  0  0  0
   -6.8684   -0.6013   -0.2563 H   0  0  0  0  0  0  0  0  0  0  0  0
   -5.8376   -1.8520    0.4618 H   0  0  0  0  0  0  0  0  0  0  0  0
   -5.7473    1.8451    0.0573 H   0  0  0  0  0  0  0  0  0  0  0  0
   -1.1424   -1.3648    1.3009 N   0  0  0  0  0  0  0  0  0  0  0  0
   -2.1660   -2.1511    0.8551 N   0  0  0  0  0  0  0  0  0  0  0  0
   -2.3298   -3.2288    1.6664 C   0  0  0  0  0  0  0  0  0  0  0  0
   -1.3771   -3.1415    2.6683 C   0  0  0  0  0  0  0  0  0  0  0  0
   -0.6551   -1.9596    2.4074 C   0  0  0  0  0  0  0  0  0  0  0  0
   -3.3807   -4.2748    1.4560 C   0  0  0  0  0  0  0  0  0  0  0  0
   -3.3505   -4.9948    2.2787 H   0  0  0  0  0  0  0  0  0  0  0  0
   -3.2300   -4.8230    0.5191 H   0  0  0  0  0  0  0  0  0  0  0  0
   -4.3854   -3.8395    1.4185 H   0  0  0  0  0  0  0  0  0  0  0  0
   -1.2415   -3.8164    3.5011 H   0  0  0  0  0  0  0  0  0  0  0  0
   -2.8720   -1.8555   -0.4924 B   0  5  2  0  0  0  0  0  0  0  0  0
   -3.7402   -2.6581   -0.6618 H   0  0  0  0  0  0  0  0  0  0  0  0
    1.3928   -1.1117   -2.9629 C   0  0  0  0  0  0  0  0  0  0  0  0
    2.5419   -1.9057   -2.8094 C   0  0  0  0  0  0  0  0  0  0  0  0
    3.8033   -1.4003   -3.1314 C   0  0  0  0  0  0  0  0  0  0  0  0
    3.9276   -0.0993   -3.6259 C   0  0  0  0  0  0  0  0  0  0  0  0
    2.7866    0.6905   -3.7951 C   0  0  0  0  0  0  0  0  0  0  0  0
    1.5257    0.1895   -3.4668 C   0  0  0  0  0  0  0  0  0  0  0  0
    2.4394   -2.9172   -2.4241 H   0  0  0  0  0  0  0  0  0  0  0  0
    4.6851   -2.0205   -2.9937 H   0  0  0  0  0  0  0  0  0  0  0  0
    4.9083    0.2995   -3.8712 H   0  0  0  0  0  0  0  0  0  0  0  0
    2.8768    1.7066   -4.1668 H   0  0  0  0  0  0  0  0  0  0  0  0
    0.6451    0.8124   -3.5581 H   0  0  0  0  0  0  0  0  0  0  0  0
   -3.0792    3.0935    0.0717 C   0  0  0  0  0  0  0  0  0  0  0  0
   -2.0886    3.6631   -0.7417 C   0  0  0  0  0  0  0  0  0  0  0  0
   -1.6837    4.9830   -0.5390 C   0  0  0  0  0  0  0  0  0  0  0  0
   -2.2760    5.7573    0.4616 C   0  0  0  0  0  0  0  0  0  0  0  0
   -3.2769    5.2022    1.2636 C   0  0  0  0  0  0  0  0  0  0  0  0
   -3.6759    3.8803    1.0705 C   0  0  0  0  0  0  0  0  0  0  0  0
   -1.6212    3.0556   -1.5067 H   0  0  0  0  0  0  0  0  0  0  0  0
   -0.9028    5.4032   -1.1664 H   0  0  0  0  0  0  0  0  0  0  0  0
   -1.9596    6.7855    0.6168 H   0  0  0  0  0  0  0  0  0  0  0  0
   -3.7399    5.7958    2.0476 H   0  0  0  0  0  0  0  0  0  0  0  0
   -4.4359    3.4402    1.7100 H   0  0  0  0  0  0  0  0  0  0  0  0
    0.4875   -1.4506    3.1894 C   0  0  0  0  0  0  0  0  0  0  0  0
    0.6422   -0.0843    3.4786 C   0  0  0  0  0  0  0  0  0  0  0  0
    1.7556    0.3561    4.1969 C   0  0  0  0  0  0  0  0  0  0  0  0
    2.7138   -0.5520    4.6518 C   0  0  0  0  0  0  0  0  0  0  0  0
    2.5569   -1.9135    4.3820 C   0  0  0  0  0  0  0  0  0  0  0  0
    1.4540   -2.3593    3.6567 C   0  0  0  0  0  0  0  0  0  0  0  0
   -0.0810    0.6282    3.0977 H   0  0  0  0  0  0  0  0  0  0  0  0
    1.8669    1.4176    4.4044 H   0  0  0  0  0  0  0  0  0  0  0  0
    3.5798   -0.2028    5.2082 H   0  0  0  0  0  0  0  0  0  0  0  0
    3.3035   -2.6269    4.7203 H   0  0  0  0  0  0  0  0  0  0  0  0
    1.3475   -3.4150    3.4225 H   0  0  0  0  0  0  0  0  0  0  0  0
    2.3963    1.9359    0.2330 C   0  0  0  0  0  0  0  0  0  0  0  0
    2.6498    0.4573   -0.1119 C   0  0  2  0  0  0  0  0  0  0  0  0
    1.4987   -0.3735    0.2770 N   0  0  0  0  0  0  0  0  0  0  0  0
    3.9289   -0.0724    0.5359 C   0  0  0  0  0  0  0  0  0  0  0  0
    3.9788   -1.0100    1.3028 O   0  0  0  0  0  0  0  0  0  0  0  0
    5.0021    0.6243    0.1190 O   0  0  0  0  0  0  0  0  0  0  0  0
    6.2814    0.1875    0.6357 C   0  0  0  0  0  0  0  0  0  0  0  0
    7.3400    1.0793    0.0157 C   0  0  0  0  0  0  0  0  0  0  0  0
    3.3375    2.4941    0.2388 H   0  0  0  0  0  0  0  0  0  0  0  0
    1.9101    2.0040    1.2100 H   0  0  0  0  0  0  0  0  0  0  0  0
    2.7904    0.3729   -1.1891 H   0  0  0  0  0  0  0  0  0  0  0  0
    1.5693   -0.5892    1.2736 H   0  0  0  0  0  0  0  0  0  0  0  0
    1.5444   -1.2700   -0.2053 H   0  0  0  0  0  0  0  0  0  0  0  0
    6.4226   -0.8669    0.3759 H   0  0  0  0  0  0  0  0  0  0  0  0
    6.2632    0.2598    1.7283 H   0  0  0  0  0  0  0  0  0  0  0  0
    7.1704    2.1272    0.2834 H   0  0  0  0  0  0  0  0  0  0  0  0
    7.3240    0.9959   -1.0758 H   0  0  0  0  0  0  0  0  0  0  0  0
    8.3331    0.7859    0.3728 H   0  0  0  0  0  0  0  0  0  0  0  0
   -0.5708    2.5910    1.0813 H   0  0  0  0  0  0  0  0  0  0  0  0
  1  2  1  0  0  0  0
  3  4  1  0  0  0  0
  3  1  1  0  0  0  0
  4 70  1  0  0  0  0
  5  6  1  0  0  0  0
  5  1  9  0  0  0  0
  6 35  1  0  0  0  0
  7  6  1  0  0  0  0
  8  9  1  0  0  0  0
  8  7  2  0  0  0  0
  9  5  2  0  0  0  0
 10  7  1  0  0  0  0
 10 12  1  0  0  0  0
 11 10  1  0  0  0  0
 13 10  1  0  0  0  0
 14  8  1  0  0  0  0
 15 19  2  0  0  0  0
 15  1  9  0  0  0  0
 16 15  1  0  0  0  0
 16 17  1  0  0  0  0
 17 18  2  0  0  0  0
 18 24  1  0  0  0  0
 19 18  1  0  0  0  0
 19 48  1  0  0  0  0
 20 17  1  0  0  0  0
 20 22  1  0  0  0  0
 20 23  1  0  0  0  0
 21 20  1  0  0  0  0
 25 29  2  0  0  0  0
 25  1  9  0  0  0  0
 26 25  1  0  0  0  0
 26 27  1  0  0  0  0
 27 28  2  0  0  0  0
 28 34  1  0  0  0  0
 29 28  1  0  0  0  0
 29 59  1  0  0  0  0
 30 27  1  0  0  0  0
 30 31  1  0  0  0  0
 32 30  1  0  0  0  0
 33 30  1  0  0  0  0
 35 36  1  6  0  0  0
 35 16  1  0  0  0  0
 35 26  1  0  0  0  0
 37 38  1  0  0  0  0
 37  9  1  0  0  0  0
 38 43  1  0  0  0  0
 39 44  1  0  0  0  0
 39 38  2  0  0  0  0
 40 39  1  0  0  0  0
 41 40  2  0  0  0  0
 41 42  1  0  0  0  0
 42 37  2  0  0  0  0
 45 40  1  0  0  0  0
 46 41  1  0  0  0  0
 47 42  1  0  0  0  0
 48 53  2  0  0  0  0
 49 50  2  0  0  0  0
 49 48  1  0  0  0  0
 50 51  1  0  0  0  0
 51 56  1  0  0  0  0
 51 52  2  0  0  0  0
 52 57  1  0  0  0  0
 53 52  1  0  0  0  0
 53 58  1  0  0  0  0
 54 49  1  0  0  0  0
 55 50  1  0  0  0  0
 59 60  2  0  0  0  0
 59 64  1  0  0  0  0
 60 61  1  0  0  0  0
 61 66  1  0  0  0  0
 61 62  2  0  0  0  0
 62 67  1  0  0  0  0
 63 62  1  0  0  0  0
 63 68  1  0  0  0  0
 64 63  2  0  0  0  0
 65 60  1  0  0  0  0
 69 64  1  0  0  0  0
 70 78  1  0  0  0  0
 70 79  1  0  0  0  0
 71 80  1  6  0  0  0
 71 70  1  0  0  0  0
 71 72  1  0  0  0  0
 71 73  1  0  0  0  0
 72 81  1  0  0  0  0
 72  1  9  0  0  0  0
 73 74  2  0  0  0  0
 75 73  1  0  0  0  0
 75 76  1  0  0  0  0
 76 84  1  0  0  0  0
 77 85  1  0  0  0  0
 77 87  1  0  0  0  0
 77 76  1  0  0  0  0
 82 72  1  0  0  0  0
 83 76  1  0  0  0  0
 86 77  1  0  0  0  0
 88  2  1  0  0  0  0
M  CHG  2   1   1  35  -1
M  END
$$$$
