
 OpenBabel02052520073D

 87 95  0  0  0  0  0  0  0  0999 V2000
   -0.5116    0.0439   -0.1346 Fe  0  3  0  0  0  0  0  0  0  0  0  0
   -0.2010    1.6354    1.3112 O   0  0  0  0  0  0  0  0  0  0  0  0
    0.8395    2.7263    0.9689 S   0  0  0  0  0  0  0  0  0  0  0  0
   -0.5905   -1.9739   -1.1308 N   0  0  0  0  0  0  0  0  0  0  0  0
   -1.6683   -2.7356   -0.7801 N   0  0  0  0  0  0  0  0  0  0  0  0
   -1.4471   -4.0426   -1.0714 C   0  0  0  0  0  0  0  0  0  0  0  0
   -0.1815   -4.1350   -1.6320 C   0  0  0  0  0  0  0  0  0  0  0  0
    0.3185   -2.8203   -1.6554 C   0  0  0  0  0  0  0  0  0  0  0  0
   -2.4444   -5.1269   -0.8045 C   0  0  0  0  0  0  0  0  0  0  0  0
   -3.3966   -4.9336   -1.3104 H   0  0  0  0  0  0  0  0  0  0  0  0
   -2.6588   -5.2229    0.2659 H   0  0  0  0  0  0  0  0  0  0  0  0
   -2.0528   -6.0834   -1.1620 H   0  0  0  0  0  0  0  0  0  0  0  0
    0.3029   -5.0242   -2.0091 H   0  0  0  0  0  0  0  0  0  0  0  0
   -2.6498    0.3409   -0.4376 N   0  0  0  0  0  0  0  0  0  0  0  0
   -3.3376   -0.8254   -0.6293 N   0  0  0  0  0  0  0  0  0  0  0  0
   -4.4756   -0.5947   -1.3287 C   0  0  0  0  0  0  0  0  0  0  0  0
   -4.5337    0.7672   -1.5916 C   0  0  0  0  0  0  0  0  0  0  0  0
   -3.3813    1.3201   -1.0033 C   0  0  0  0  0  0  0  0  0  0  0  0
   -5.4454   -1.6768   -1.6883 C   0  0  0  0  0  0  0  0  0  0  0  0
   -4.9627   -2.4718   -2.2679 H   0  0  0  0  0  0  0  0  0  0  0  0
   -6.2583   -1.2606   -2.2896 H   0  0  0  0  0  0  0  0  0  0  0  0
   -5.8809   -2.1429   -0.7967 H   0  0  0  0  0  0  0  0  0  0  0  0
   -5.3256    1.3002   -2.0976 H   0  0  0  0  0  0  0  0  0  0  0  0
   -1.1363   -1.2214    1.6626 N   0  0  0  0  0  0  0  0  0  0  0  0
   -2.3530   -1.8051    1.4571 N   0  0  0  0  0  0  0  0  0  0  0  0
   -3.0387   -1.9005    2.6223 C   0  0  0  0  0  0  0  0  0  0  0  0
   -2.2309   -1.3776    3.6267 C   0  0  0  0  0  0  0  0  0  0  0  0
   -1.0488   -0.9752    2.9818 C   0  0  0  0  0  0  0  0  0  0  0  0
   -4.4157   -2.4805    2.7125 C   0  0  0  0  0  0  0  0  0  0  0  0
   -4.7591   -2.4634    3.7505 H   0  0  0  0  0  0  0  0  0  0  0  0
   -4.4420   -3.5167    2.3571 H   0  0  0  0  0  0  0  0  0  0  0  0
   -5.1288   -1.9103    2.1061 H   0  0  0  0  0  0  0  0  0  0  0  0
   -2.4490   -1.3350    4.6842 H   0  0  0  0  0  0  0  0  0  0  0  0
   -2.8398   -2.1298    0.0210 B   0  5  2  0  0  0  0  0  0  0  0  0
   -3.7377   -2.9209    0.0710 H   0  0  0  0  0  0  0  0  0  0  0  0
    1.6500   -2.3800   -2.1096 C   0  0  0  0  0  0  0  0  0  0  0  0
    2.7948   -3.0858   -1.6970 C   0  0  0  0  0  0  0  0  0  0  0  0
    4.0687   -2.6364   -2.0472 C   0  0  0  0  0  0  0  0  0  0  0  0
    4.2155   -1.4777   -2.8151 C   0  0  0  0  0  0  0  0  0  0  0  0
    3.0818   -0.7803   -3.2420 C   0  0  0  0  0  0  0  0  0  0  0  0
    1.8068   -1.2328   -2.9020 C   0  0  0  0  0  0  0  0  0  0  0  0
    2.6791   -3.9667   -1.0713 H   0  0  0  0  0  0  0  0  0  0  0  0
    4.9443   -3.1807   -1.7043 H   0  0  0  0  0  0  0  0  0  0  0  0
    5.2076   -1.1197   -3.0783 H   0  0  0  0  0  0  0  0  0  0  0  0
    3.1825    0.1256   -3.8325 H   0  0  0  0  0  0  0  0  0  0  0  0
    0.9312   -0.6792   -3.2161 H   0  0  0  0  0  0  0  0  0  0  0  0
   -3.0197    2.7416   -0.9121 C   0  0  0  0  0  0  0  0  0  0  0  0
   -3.1856    3.5892   -2.0160 C   0  0  0  0  0  0  0  0  0  0  0  0
   -2.8617    4.9415   -1.9221 C   0  0  0  0  0  0  0  0  0  0  0  0
   -2.3729    5.4646   -0.7224 C   0  0  0  0  0  0  0  0  0  0  0  0
   -2.2197    4.6278    0.3861 C   0  0  0  0  0  0  0  0  0  0  0  0
   -2.5473    3.2756    0.2951 C   0  0  0  0  0  0  0  0  0  0  0  0
   -3.5356    3.1738   -2.9566 H   0  0  0  0  0  0  0  0  0  0  0  0
   -2.9783    5.5854   -2.7898 H   0  0  0  0  0  0  0  0  0  0  0  0
   -2.1166    6.5185   -0.6512 H   0  0  0  0  0  0  0  0  0  0  0  0
   -1.8521    5.0305    1.3269 H   0  0  0  0  0  0  0  0  0  0  0  0
   -2.4222    2.6189    1.1474 H   0  0  0  0  0  0  0  0  0  0  0  0
    0.1867   -0.4354    3.5838 C   0  0  0  0  0  0  0  0  0  0  0  0
    0.1873    0.7873    4.2694 C   0  0  0  0  0  0  0  0  0  0  0  0
    1.3694    1.2914    4.8121 C   0  0  0  0  0  0  0  0  0  0  0  0
    2.5688    0.5836    4.6738 C   0  0  0  0  0  0  0  0  0  0  0  0
    2.5775   -0.6416    4.0027 C   0  0  0  0  0  0  0  0  0  0  0  0
    1.3893   -1.1518    3.4735 C   0  0  0  0  0  0  0  0  0  0  0  0
   -0.7375    1.3508    4.3436 H   0  0  0  0  0  0  0  0  0  0  0  0
    1.3587    2.2453    5.3330 H   0  0  0  0  0  0  0  0  0  0  0  0
    3.4893    0.9839    5.0905 H   0  0  0  0  0  0  0  0  0  0  0  0
    3.5031   -1.1947    3.8766 H   0  0  0  0  0  0  0  0  0  0  0  0
    1.3843   -2.1169    2.9729 H   0  0  0  0  0  0  0  0  0  0  0  0
    2.4564    1.8680    1.0857 C   0  0  0  0  0  0  0  0  0  0  0  0
    2.6291    0.6830    0.1168 C   0  0  2  0  0  0  0  0  0  0  0  0
    1.6190   -0.3538    0.3540 N   0  0  0  0  0  0  0  0  0  0  0  0
    4.0350    0.1108    0.3089 C   0  0  0  0  0  0  0  0  0  0  0  0
    4.2901   -0.8720    0.9734 O   0  0  0  0  0  0  0  0  0  0  0  0
    4.9456    0.8454   -0.3489 O   0  0  0  0  0  0  0  0  0  0  0  0
    6.3116    0.3681   -0.2883 C   0  0  0  0  0  0  0  0  0  0  0  0
    7.1293    1.2392   -1.2220 C   0  0  0  0  0  0  0  0  0  0  0  0
    3.2170    2.6290    0.8792 H   0  0  0  0  0  0  0  0  0  0  0  0
    2.5633    1.5292    2.1230 H   0  0  0  0  0  0  0  0  0  0  0  0
    2.5212    1.0319   -0.9122 H   0  0  0  0  0  0  0  0  0  0  0  0
    1.6575   -0.6355    1.3341 H   0  0  0  0  0  0  0  0  0  0  0  0
    1.8798   -1.1812   -0.1811 H   0  0  0  0  0  0  0  0  0  0  0  0
    6.3213   -0.6845   -0.5875 H   0  0  0  0  0  0  0  0  0  0  0  0
    6.6595    0.4250    0.7488 H   0  0  0  0  0  0  0  0  0  0  0  0
    7.0863    2.2889   -0.9148 H   0  0  0  0  0  0  0  0  0  0  0  0
    6.7499    1.1652   -2.2463 H   0  0  0  0  0  0  0  0  0  0  0  0
    8.1762    0.9171   -1.2136 H   0  0  0  0  0  0  0  0  0  0  0  0
    0.1121    1.7120   -2.1105 Br  0  0  0  0  0  0  0  0  0  0  0  0
  1  2  1  0  0  0  0
  3 69  1  0  0  0  0
  3  2  1  0  0  0  0
  4  5  1  0  0  0  0
  4  1  9  0  0  0  0
  5 34  1  0  0  0  0
  6  9  1  0  0  0  0
  6  5  1  0  0  0  0
  7  6  2  0  0  0  0
  8  7  1  0  0  0  0
  8  4  2  0  0  0  0
  9 11  1  0  0  0  0
 10  9  1  0  0  0  0
 12  9  1  0  0  0  0
 13  7  1  0  0  0  0
 14  1  9  0  0  0  0
 15 14  1  0  0  0  0
 15 34  1  0  0  0  0
 16 15  1  0  0  0  0
 17 16  2  0  0  0  0
 17 18  1  0  0  0  0
 18 47  1  0  0  0  0
 18 14  2  0  0  0  0
 19 16  1  0  0  0  0
 19 22  1  0  0  0  0
 20 19  1  0  0  0  0
 21 19  1  0  0  0  0
 23 17  1  0  0  0  0
 24 28  2  0  0  0  0
 24  1  9  0  0  0  0
 25 24  1  0  0  0  0
 25 26  1  0  0  0  0
 26 29  1  0  0  0  0
 26 27  2  0  0  0  0
 27 33  1  0  0  0  0
 28 58  1  0  0  0  0
 28 27  1  0  0  0  0
 29 30  1  0  0  0  0
 31 29  1  0  0  0  0
 32 29  1  0  0  0  0
 34 35  1  1  0  0  0
 34 25  1  0  0  0  0
 36 37  2  0  0  0  0
 36  8  1  0  0  0  0
 37 42  1  0  0  0  0
 38 43  1  0  0  0  0
 38 37  1  0  0  0  0
 39 38  2  0  0  0  0
 40 41  2  0  0  0  0
 40 39  1  0  0  0  0
 41 36  1  0  0  0  0
 44 39  1  0  0  0  0
 45 40  1  0  0  0  0
 46 41  1  0  0  0  0
 47 52  2  0  0  0  0
 48 49  2  0  0  0  0
 48 47  1  0  0  0  0
 49 50  1  0  0  0  0
 50 55  1  0  0  0  0
 50 51  2  0  0  0  0
 51 56  1  0  0  0  0
 52 51  1  0  0  0  0
 52 57  1  0  0  0  0
 53 48  1  0  0  0  0
 54 49  1  0  0  0  0
 58 59  2  0  0  0  0
 59 64  1  0  0  0  0
 59 60  1  0  0  0  0
 60 65  1  0  0  0  0
 61 60  2  0  0  0  0
 61 66  1  0  0  0  0
 62 61  1  0  0  0  0
 63 58  1  0  0  0  0
 63 62  2  0  0  0  0
 67 62  1  0  0  0  0
 68 63  1  0  0  0  0
 69 78  1  0  0  0  0
 70 79  1  6  0  0  0
 70 72  1  0  0  0  0
 70 71  1  0  0  0  0
 70 69  1  0  0  0  0
 71 80  1  0  0  0  0
 71  1  9  0  0  0  0
 72 73  2  0  0  0  0
 74 75  1  0  0  0  0
 74 72  1  0  0  0  0
 75 83  1  0  0  0  0
 76 86  1  0  0  0  0
 76 84  1  0  0  0  0
 76 75  1  0  0  0  0
 77 69  1  0  0  0  0
 81 71  1  0  0  0  0
 82 75  1  0  0  0  0
 85 76  1  0  0  0  0
 87  1  1  0  0  0  0
M  CHG  2   1   1  34  -1
M  END
$$$$
