
 OpenBabel02072512503D

 89 96  0  0  0  0  0  0  0  0999 V2000
    0.5157    0.1006   -0.2567 Fe  0  3  0  0  0 37  0  0  0  0  0  0
   -0.2168    1.8900   -0.3302 O   0  0  0  0  0  1  0  0  0  0  0  0
   -1.5516    2.4747   -0.9760 S   0  0  0  0  0  0  0  0  0  0  0  0
    0.9032   -0.0213    2.0219 N   0  0  0  0  0  0  0  0  0  0  0  0
    1.9977   -0.7487    2.3835 N   0  0  0  0  0  0  0  0  0  0  0  0
    1.8732   -1.2045    3.6548 C   0  0  0  0  0  0  0  0  0  0  0  0
    0.6556   -0.7478    4.1424 C   0  0  0  0  0  0  0  0  0  0  0  0
    0.0893    0.0013    3.0937 C   0  0  0  0  0  0  0  0  0  0  0  0
    2.9191   -2.0341    4.3318 C   0  0  0  0  0  0  0  0  0  0  0  0
    3.8725   -1.4991    4.4061 H   0  0  0  0  0  0  0  0  0  0  0  0
    3.1102   -2.9637    3.7842 H   0  0  0  0  0  0  0  0  0  0  0  0
    2.5903   -2.2924    5.3421 H   0  0  0  0  0  0  0  0  0  0  0  0
    0.2570   -0.8867    5.1371 H   0  0  0  0  0  0  0  0  0  0  0  0
    2.5529    0.8672   -0.2268 N   0  0  0  0  0  0  0  0  0  0  0  0
    3.4526    0.3426    0.6560 N   0  0  0  0  0  0  0  0  0  0  0  0
    4.4742    1.2114    0.8573 C   0  0  0  0  0  0  0  0  0  0  0  0
    4.2307    2.3319    0.0743 C   0  0  0  0  0  0  0  0  0  0  0  0
    3.0194    2.0767   -0.5943 C   0  0  0  0  0  0  0  0  0  0  0  0
    5.6239    0.9240    1.7718 C   0  0  0  0  0  0  0  0  0  0  0  0
    5.2919    0.7976    2.8087 H   0  0  0  0  0  0  0  0  0  0  0  0
    6.3370    1.7523    1.7401 H   0  0  0  0  0  0  0  0  0  0  0  0
    6.1489    0.0062    1.4847 H   0  0  0  0  0  0  0  0  0  0  0  0
    4.8637    3.2006   -0.0356 H   0  0  0  0  0  0  0  0  0  0  0  0
    1.4270   -2.0263   -0.1366 N   0  0  0  0  0  0  0  0  0  0  0  0
    2.6992   -2.0492    0.3587 N   0  0  0  0  0  0  0  0  0  0  0  0
    3.4213   -3.0403   -0.2202 C   0  0  0  0  0  0  0  0  0  0  0  0
    2.5838   -3.6949   -1.1149 C   0  0  0  0  0  0  0  0  0  0  0  0
    1.3457   -3.0338   -1.0243 C   0  0  0  0  0  0  0  0  0  0  0  0
    4.8552   -3.3063    0.1170 C   0  0  0  0  0  0  0  0  0  0  0  0
    5.2244   -4.1508   -0.4714 H   0  0  0  0  0  0  0  0  0  0  0  0
    4.9840   -3.5438    1.1792 H   0  0  0  0  0  0  0  0  0  0  0  0
    5.4859   -2.4365   -0.1006 H   0  0  0  0  0  0  0  0  0  0  0  0
    2.8212   -4.5577   -1.7204 H   0  0  0  0  0  0  0  0  0  0  0  0
    3.1495   -0.9872    1.3778 B   0  5  2  0  0  0  0  0  0  0  0  0
    4.1268   -1.3621    1.9599 H   0  0  0  0  0  0  0  0  0  0  0  0
   -1.1650    0.7698    3.1129 C   0  0  0  0  0  0  0  0  0  0  0  0
   -2.3302    0.2145    3.6681 C   0  0  0  0  0  0  0  0  0  0  0  0
   -3.5228    0.9398    3.6835 C   0  0  0  0  0  0  0  0  0  0  0  0
   -3.5631    2.2333    3.1549 C   0  0  0  0  0  0  0  0  0  0  0  0
   -2.4048    2.7959    2.6099 C   0  0  0  0  0  0  0  0  0  0  0  0
   -1.2126    2.0708    2.5868 C   0  0  0  0  0  0  0  0  0  0  0  0
   -2.2987   -0.7953    4.0692 H   0  0  0  0  0  0  0  0  0  0  0  0
   -4.4204    0.4931    4.1029 H   0  0  0  0  0  0  0  0  0  0  0  0
   -4.4922    2.7965    3.1619 H   0  0  0  0  0  0  0  0  0  0  0  0
   -2.4303    3.7958    2.1873 H   0  0  0  0  0  0  0  0  0  0  0  0
   -0.3213    2.4890    2.1332 H   0  0  0  0  0  0  0  0  0  0  0  0
    2.3190    2.9375   -1.5600 C   0  0  0  0  0  0  0  0  0  0  0  0
    2.1678    4.3075   -1.3008 C   0  0  0  0  0  0  0  0  0  0  0  0
    1.4699    5.1197   -2.1948 C   0  0  0  0  0  0  0  0  0  0  0  0
    0.9170    4.5718   -3.3556 C   0  0  0  0  0  0  0  0  0  0  0  0
    1.0794    3.2107   -3.6285 C   0  0  0  0  0  0  0  0  0  0  0  0
    1.7867    2.4017   -2.7410 C   0  0  0  0  0  0  0  0  0  0  0  0
    2.5738    4.7242   -0.3828 H   0  0  0  0  0  0  0  0  0  0  0  0
    1.3481    6.1783   -1.9797 H   0  0  0  0  0  0  0  0  0  0  0  0
    0.3621    5.2031   -4.0447 H   0  0  0  0  0  0  0  0  0  0  0  0
    0.6448    2.7704   -4.5205 H   0  0  0  0  0  0  0  0  0  0  0  0
    1.9152    1.3446   -2.9392 H   0  0  0  0  0  0  0  0  0  0  0  0
    0.0904   -3.3495   -1.7297 C   0  0  0  0  0  0  0  0  0  0  0  0
    0.0481   -3.3780   -3.1310 C   0  0  0  0  0  0  0  0  0  0  0  0
   -1.1521   -3.6224   -3.7958 C   0  0  0  0  0  0  0  0  0  0  0  0
   -2.3267   -3.8454   -3.0700 C   0  0  0  0  0  0  0  0  0  0  0  0
   -2.2914   -3.8444   -1.6744 C   0  0  0  0  0  0  0  0  0  0  0  0
   -1.0846   -3.6090   -1.0096 C   0  0  0  0  0  0  0  0  0  0  0  0
    0.9527   -3.1609   -3.6909 H   0  0  0  0  0  0  0  0  0  0  0  0
   -1.1766   -3.6152   -4.8819 H   0  0  0  0  0  0  0  0  0  0  0  0
   -3.2638   -4.0205   -3.5916 H   0  0  0  0  0  0  0  0  0  0  0  0
   -3.1968   -4.0058   -1.0980 H   0  0  0  0  0  0  0  0  0  0  0  0
   -1.0471   -3.6261    0.0765 H   0  0  0  0  0  0  0  0  0  0  0  0
   -2.6914    1.0393   -1.1373 C   0  0  0  0  0  0  0  0  0  0  0  0
   -2.7047    0.1573    0.1219 C   0  0  2  0  0  0  0  0  0  0  0  0
   -1.5198   -0.7088    0.1938 N   0  0  0  0  0  0  0  0  0  0  0  0
   -3.9847   -0.6751    0.2304 C   0  0  0  0  0  0  0  0  0  0  0  0
   -4.0118   -1.8822    0.3499 O   0  0  0  0  0  0  0  0  0  0  0  0
   -5.0732    0.1115    0.2246 O   0  0  0  0  0  0  0  0  0  0  0  0
   -6.3474   -0.5579    0.3912 C   0  0  0  0  0  0  0  0  0  0  0  0
   -7.4149    0.5188    0.4162 C   0  0  0  0  0  0  0  0  0  0  0  0
   -3.6738    1.5028   -1.2723 H   0  0  0  0  0  0  0  0  0  0  0  0
   -2.4617    0.4566   -2.0335 H   0  0  0  0  0  0  0  0  0  0  0  0
   -2.7027    0.8132    0.9913 H   0  0  0  0  0  0  0  0  0  0  0  0
   -1.6167   -1.4692   -0.4827 H   0  0  0  0  0  0  0  0  0  0  0  0
   -1.4908   -1.1598    1.1078 H   0  0  0  0  0  0  0  0  0  0  0  0
   -6.3177   -1.1364    1.3203 H   0  0  0  0  0  0  0  0  0  0  0  0
   -6.4842   -1.2623   -0.4359 H   0  0  0  0  0  0  0  0  0  0  0  0
   -7.4153    1.0873   -0.5193 H   0  0  0  0  0  0  0  0  0  0  0  0
   -7.2415    1.2147    1.2433 H   0  0  0  0  0  0  0  0  0  0  0  0
   -8.4023    0.0630    0.5457 H   0  0  0  0  0  0  0  0  0  0  0  0
    0.2221   -0.3417   -2.1837 N   0  0  0  0  0  0  0  0  0  0  0  0
   -0.3706    0.0214   -3.1623 N   0  3  0  0  0  0  0  0  0  0  0  0
   -0.9374    0.3338   -4.1267 N   0  5  0  0  0  0  0  0  0  0  0  0
  1 87  1  0  0  0  0
  3  2  1  0  0  0  0
  4  5  1  0  0  0  0
  4  8  2  0  0  0  0
  4  1  9  0  0  0  0
  5  6  1  0  0  0  0
  6  7  2  0  0  0  0
  6  9  1  0  0  0  0
  7 13  1  0  0  0  0
  8 36  1  0  0  0  0
  8  7  1  0  0  0  0
  9 10  1  0  0  0  0
  9 12  1  0  0  0  0
 11  9  1  0  0  0  0
 14 15  1  0  0  0  0
 14  1  9  0  0  0  0
 15 16  1  0  0  0  0
 15 34  1  0  0  0  0
 16 19  1  0  0  0  0
 17 16  2  0  0  0  0
 18 14  2  0  0  0  0
 18 17  1  0  0  0  0
 19 20  1  0  0  0  0
 21 19  1  0  0  0  0
 22 19  1  0  0  0  0
 23 17  1  0  0  0  0
 24 25  1  0  0  0  0
 24  1  9  0  0  0  0
 25 34  1  0  0  0  0
 26 29  1  0  0  0  0
 26 25  1  0  0  0  0
 27 28  1  0  0  0  0
 27 26  2  0  0  0  0
 28 24  2  0  0  0  0
 29 31  1  0  0  0  0
 30 29  1  0  0  0  0
 32 29  1  0  0  0  0
 33 27  1  0  0  0  0
 34 35  1  1  0  0  0
 34  5  1  0  0  0  0
 36 37  2  0  0  0  0
 37 38  1  0  0  0  0
 37 42  1  0  0  0  0
 38 43  1  0  0  0  0
 39 44  1  0  0  0  0
 39 38  2  0  0  0  0
 40 39  1  0  0  0  0
 41 40  2  0  0  0  0
 41 36  1  0  0  0  0
 45 40  1  0  0  0  0
 46 41  1  0  0  0  0
 47 48  1  0  0  0  0
 47 18  1  0  0  0  0
 48 53  1  0  0  0  0
 49 54  1  0  0  0  0
 49 48  2  0  0  0  0
 50 49  1  0  0  0  0
 51 50  2  0  0  0  0
 51 52  1  0  0  0  0
 52 47  2  0  0  0  0
 55 50  1  0  0  0  0
 56 51  1  0  0  0  0
 57 52  1  0  0  0  0
 58 28  1  0  0  0  0
 58 63  2  0  0  0  0
 59 58  1  0  0  0  0
 60 59  2  0  0  0  0
 60 61  1  0  0  0  0
 61 62  2  0  0  0  0
 62 67  1  0  0  0  0
 62 63  1  0  0  0  0
 63 68  1  0  0  0  0
 64 59  1  0  0  0  0
 65 60  1  0  0  0  0
 66 61  1  0  0  0  0
 69  3  1  0  0  0  0
 69 70  1  0  0  0  0
 70 71  1  0  0  0  0
 70 72  1  0  0  0  0
 70 79  1  1  0  0  0
 71 81  1  0  0  0  0
 71  1  9  0  0  0  0
 72 73  2  0  0  0  0
 74 72  1  0  0  0  0
 74 75  1  0  0  0  0
 75 76  1  0  0  0  0
 75 82  1  0  0  0  0
 76 86  1  0  0  0  0
 76 85  1  0  0  0  0
 77 69  1  0  0  0  0
 78 69  1  0  0  0  0
 80 71  1  0  0  0  0
 83 75  1  0  0  0  0
 84 76  1  0  0  0  0
 88 87  2  0  0  0  0
 89 88  2  0  0  0  0
M  RAD  2   1   2   2   2
M  CHG  4   1   1  34  -1  88   1  89  -1
M  END
$$$$
