
 OpenBabel02052520083D

 88 95  0  0  0  0  0  0  0  0999 V2000
   -0.4862    0.2013   -0.1622 Fe  0  3  0  0  0  0  0  0  0  0  0  0
    0.8068    3.5808    0.8057 O   0  0  0  0  0  1  0  0  0  0  0  0
    1.9745    3.2498   -0.1244 S   0  0  0  0  0  0  0  0  0  0  0  0
   -0.6979   -1.9057   -0.8281 N   0  0  0  0  0  0  0  0  0  0  0  0
   -1.8661   -2.5362   -0.5131 N   0  0  0  0  0  0  0  0  0  0  0  0
   -1.8002   -3.8525   -0.8430 C   0  0  0  0  0  0  0  0  0  0  0  0
   -0.5484   -4.0805   -1.3925 C   0  0  0  0  0  0  0  0  0  0  0  0
    0.1108   -2.8347   -1.3711 C   0  0  0  0  0  0  0  0  0  0  0  0
   -2.9255   -4.8173   -0.6308 C   0  0  0  0  0  0  0  0  0  0  0  0
   -3.8426   -4.4874   -1.1312 H   0  0  0  0  0  0  0  0  0  0  0  0
   -3.1625   -4.9393    0.4324 H   0  0  0  0  0  0  0  0  0  0  0  0
   -2.6498   -5.7968   -1.0315 H   0  0  0  0  0  0  0  0  0  0  0  0
   -0.1756   -5.0098   -1.7982 H   0  0  0  0  0  0  0  0  0  0  0  0
   -2.6333    0.5200   -0.7215 N   0  0  0  0  0  0  0  0  0  0  0  0
   -3.4562   -0.5537   -0.5622 N   0  0  0  0  0  0  0  0  0  0  0  0
   -4.6382   -0.3471   -1.2032 C   0  0  0  0  0  0  0  0  0  0  0  0
   -4.5743    0.9046   -1.7935 C   0  0  0  0  0  0  0  0  0  0  0  0
   -3.3030    1.4190   -1.4609 C   0  0  0  0  0  0  0  0  0  0  0  0
   -5.7567   -1.3422   -1.2110 C   0  0  0  0  0  0  0  0  0  0  0  0
   -5.4478   -2.2951   -1.6561 H   0  0  0  0  0  0  0  0  0  0  0  0
   -6.5943   -0.9497   -1.7944 H   0  0  0  0  0  0  0  0  0  0  0  0
   -6.1157   -1.5580   -0.1983 H   0  0  0  0  0  0  0  0  0  0  0  0
   -5.3554    1.3979   -2.3536 H   0  0  0  0  0  0  0  0  0  0  0  0
   -1.4303   -0.4857    1.7671 N   0  0  0  0  0  0  0  0  0  0  0  0
   -2.4728   -1.3585    1.6302 N   0  0  0  0  0  0  0  0  0  0  0  0
   -2.8413   -1.8495    2.8417 C   0  0  0  0  0  0  0  0  0  0  0  0
   -2.0126   -1.2769    3.7946 C   0  0  0  0  0  0  0  0  0  0  0  0
   -1.1491   -0.4246    3.0819 C   0  0  0  0  0  0  0  0  0  0  0  0
   -3.9602   -2.8249    3.0372 C   0  0  0  0  0  0  0  0  0  0  0  0
   -4.0953   -3.0178    4.1051 H   0  0  0  0  0  0  0  0  0  0  0  0
   -3.7576   -3.7809    2.5413 H   0  0  0  0  0  0  0  0  0  0  0  0
   -4.9044   -2.4435    2.6341 H   0  0  0  0  0  0  0  0  0  0  0  0
   -2.0553   -1.4182    4.8648 H   0  0  0  0  0  0  0  0  0  0  0  0
   -2.9969   -1.7863    0.2346 B   0  5  2  0  0  0  0  0  0  0  0  0
   -3.9210   -2.5293    0.3796 H   0  0  0  0  0  0  0  0  0  0  0  0
    1.4576   -2.5452   -1.8915 C   0  0  0  0  0  0  0  0  0  0  0  0
    2.4702   -3.5126   -1.7696 C   0  0  0  0  0  0  0  0  0  0  0  0
    3.7374   -3.2880   -2.3049 C   0  0  0  0  0  0  0  0  0  0  0  0
    4.0142   -2.0904   -2.9700 C   0  0  0  0  0  0  0  0  0  0  0  0
    3.0166   -1.1193   -3.0853 C   0  0  0  0  0  0  0  0  0  0  0  0
    1.7434   -1.3419   -2.5579 C   0  0  0  0  0  0  0  0  0  0  0  0
    2.2621   -4.4369   -1.2380 H   0  0  0  0  0  0  0  0  0  0  0  0
    4.5095   -4.0454   -2.1974 H   0  0  0  0  0  0  0  0  0  0  0  0
    5.0005   -1.9147   -3.3924 H   0  0  0  0  0  0  0  0  0  0  0  0
    3.2256   -0.1794   -3.5895 H   0  0  0  0  0  0  0  0  0  0  0  0
    0.9860   -0.5660   -2.6241 H   0  0  0  0  0  0  0  0  0  0  0  0
   -2.7429    2.7315   -1.8161 C   0  0  0  0  0  0  0  0  0  0  0  0
   -3.1021    3.3447   -3.0285 C   0  0  0  0  0  0  0  0  0  0  0  0
   -2.5873    4.5935   -3.3738 C   0  0  0  0  0  0  0  0  0  0  0  0
   -1.6997    5.2494   -2.5162 C   0  0  0  0  0  0  0  0  0  0  0  0
   -1.3346    4.6494   -1.3088 C   0  0  0  0  0  0  0  0  0  0  0  0
   -1.8577    3.4049   -0.9579 C   0  0  0  0  0  0  0  0  0  0  0  0
   -3.7728    2.8265   -3.7084 H   0  0  0  0  0  0  0  0  0  0  0  0
   -2.8716    5.0501   -4.3184 H   0  0  0  0  0  0  0  0  0  0  0  0
   -1.2946    6.2204   -2.7886 H   0  0  0  0  0  0  0  0  0  0  0  0
   -0.6407    5.1335   -0.6298 H   0  0  0  0  0  0  0  0  0  0  0  0
   -1.5708    2.9517   -0.0154 H   0  0  0  0  0  0  0  0  0  0  0  0
   -0.1060    0.4457    3.6430 C   0  0  0  0  0  0  0  0  0  0  0  0
    0.1231    1.7306    3.1292 C   0  0  0  0  0  0  0  0  0  0  0  0
    1.1012    2.5531    3.6904 C   0  0  0  0  0  0  0  0  0  0  0  0
    1.8636    2.1039    4.7712 C   0  0  0  0  0  0  0  0  0  0  0  0
    1.6470    0.8221    5.2869 C   0  0  0  0  0  0  0  0  0  0  0  0
    0.6700   -0.0002    4.7284 C   0  0  0  0  0  0  0  0  0  0  0  0
   -0.4558    2.0863    2.2842 H   0  0  0  0  0  0  0  0  0  0  0  0
    1.2608    3.5377    3.2644 H   0  0  0  0  0  0  0  0  0  0  0  0
    2.6227    2.7466    5.2091 H   0  0  0  0  0  0  0  0  0  0  0  0
    2.2431    0.4609    6.1207 H   0  0  0  0  0  0  0  0  0  0  0  0
    0.5112   -1.0019    5.1182 H   0  0  0  0  0  0  0  0  0  0  0  0
    2.9584    1.8814    0.6384 C   0  0  0  0  0  0  0  0  0  0  0  0
    2.6662    0.4587    0.1255 C   0  0  2  0  0  0  0  0  0  0  0  0
    1.5160   -0.1725    0.7901 N   0  0  0  0  0  0  0  0  0  0  0  0
    3.9041   -0.4363    0.2490 C   0  0  0  0  0  0  0  0  0  0  0  0
    3.9300   -1.4928    0.8440 O   0  0  0  0  0  0  0  0  0  0  0  0
    4.9448    0.0761   -0.4298 O   0  0  0  0  0  0  0  0  0  0  0  0
    6.1369   -0.7447   -0.4794 C   0  0  0  0  0  0  0  0  0  0  0  0
    7.0857   -0.0896   -1.4640 C   0  0  0  0  0  0  0  0  0  0  0  0
    3.9938    2.1359    0.3909 H   0  0  0  0  0  0  0  0  0  0  0  0
    2.8284    1.9576    1.7232 H   0  0  0  0  0  0  0  0  0  0  0  0
    2.4300    0.5265   -0.9383 H   0  0  0  0  0  0  0  0  0  0  0  0
    1.5340    0.0210    1.7910 H   0  0  0  0  0  0  0  0  0  0  0  0
    1.6247   -1.1852    0.7089 H   0  0  0  0  0  0  0  0  0  0  0  0
    5.8474   -1.7520   -0.7907 H   0  0  0  0  0  0  0  0  0  0  0  0
    6.5606   -0.8089    0.5287 H   0  0  0  0  0  0  0  0  0  0  0  0
    7.3388    0.9276   -1.1478 H   0  0  0  0  0  0  0  0  0  0  0  0
    6.6286   -0.0380   -2.4576 H   0  0  0  0  0  0  0  0  0  0  0  0
    8.0112   -0.6711   -1.5358 H   0  0  0  0  0  0  0  0  0  0  0  0
    0.3409    1.2390   -1.5028 O   0  0  0  0  0  0  0  0  0  0  0  0
   -0.1957    1.9246   -1.9263 H   0  0  0  0  0  0  0  0  0  0  0  0
  3 69  1  0  0  0  0
  3  2  1  0  0  0  0
  4  5  1  0  0  0  0
  4  1  9  0  0  0  0
  5 34  1  0  0  0  0
  6  9  1  0  0  0  0
  6  5  1  0  0  0  0
  7  8  1  0  0  0  0
  7  6  2  0  0  0  0
  8  4  2  0  0  0  0
  9 11  1  0  0  0  0
 10  9  1  0  0  0  0
 12  9  1  0  0  0  0
 13  7  1  0  0  0  0
 14 15  1  0  0  0  0
 14  1  9  0  0  0  0
 15 34  1  0  0  0  0
 16 15  1  0  0  0  0
 17 18  1  0  0  0  0
 17 16  2  0  0  0  0
 18 14  2  0  0  0  0
 19 16  1  0  0  0  0
 19 22  1  0  0  0  0
 20 19  1  0  0  0  0
 21 19  1  0  0  0  0
 23 17  1  0  0  0  0
 24 28  2  0  0  0  0
 24  1  9  0  0  0  0
 25 24  1  0  0  0  0
 25 26  1  0  0  0  0
 26 29  1  0  0  0  0
 26 27  2  0  0  0  0
 27 33  1  0  0  0  0
 28 58  1  0  0  0  0
 28 27  1  0  0  0  0
 29 30  1  0  0  0  0
 31 29  1  0  0  0  0
 32 29  1  0  0  0  0
 34 35  1  1  0  0  0
 34 25  1  0  0  0  0
 36 37  1  0  0  0  0
 36  8  1  0  0  0  0
 37 42  1  0  0  0  0
 38 43  1  0  0  0  0
 38 37  2  0  0  0  0
 39 38  1  0  0  0  0
 40 39  2  0  0  0  0
 40 41  1  0  0  0  0
 41 36  2  0  0  0  0
 44 39  1  0  0  0  0
 45 40  1  0  0  0  0
 46 41  1  0  0  0  0
 47 18  1  0  0  0  0
 47 52  2  0  0  0  0
 48 47  1  0  0  0  0
 49 48  2  0  0  0  0
 49 50  1  0  0  0  0
 50 51  2  0  0  0  0
 51 52  1  0  0  0  0
 51 56  1  0  0  0  0
 52 57  1  0  0  0  0
 53 48  1  0  0  0  0
 54 49  1  0  0  0  0
 55 50  1  0  0  0  0
 58 63  1  0  0  0  0
 59 58  2  0  0  0  0
 59 60  1  0  0  0  0
 60 61  2  0  0  0  0
 61 66  1  0  0  0  0
 61 62  1  0  0  0  0
 62 67  1  0  0  0  0
 63 68  1  0  0  0  0
 63 62  2  0  0  0  0
 64 59  1  0  0  0  0
 65 60  1  0  0  0  0
 69 78  1  0  0  0  0
 70 79  1  6  0  0  0
 70 72  1  0  0  0  0
 70 69  1  0  0  0  0
 70 71  1  0  0  0  0
 71 80  1  0  0  0  0
 71  1  9  0  0  0  0
 72 73  2  0  0  0  0
 74 72  1  0  0  0  0
 75 74  1  0  0  0  0
 75 83  1  0  0  0  0
 76 84  1  0  0  0  0
 76 75  1  0  0  0  0
 77 69  1  0  0  0  0
 81 71  1  0  0  0  0
 82 75  1  0  0  0  0
 85 76  1  0  0  0  0
 86 76  1  0  0  0  0
 87  1  1  0  0  0  0
 88 87  1  0  0  0  0
M  RAD  1   2   2
M  CHG  2   1   1  34  -1
M  END
$$$$
