
 OpenBabel02052520083D

 87 95  0  0  0  0  0  0  0  0999 V2000
   -0.5005    0.0188   -0.3806 Fe  0  3  0  0  0  0  0  0  0  0  0  0
   -0.3297    2.1246   -0.0128 O   0  0  0  0  0  0  0  0  0  0  0  0
    0.8236    2.9274   -0.6558 S   0  0  0  0  0  0  0  0  0  0  0  0
   -0.5286   -2.1960   -0.5203 N   0  0  0  0  0  0  0  0  0  0  0  0
   -1.8018   -2.6808   -0.4659 N   0  0  0  0  0  0  0  0  0  0  0  0
   -1.9146   -3.8041   -1.2141 C   0  0  0  0  0  0  0  0  0  0  0  0
   -0.6631   -4.0652   -1.7650 C   0  0  0  0  0  0  0  0  0  0  0  0
    0.1752   -3.0418   -1.2939 C   0  0  0  0  0  0  0  0  0  0  0  0
   -3.1963   -4.5650   -1.3479 C   0  0  0  0  0  0  0  0  0  0  0  0
   -3.9971   -3.9305   -1.7443 H   0  0  0  0  0  0  0  0  0  0  0  0
   -3.5375   -4.9541   -0.3814 H   0  0  0  0  0  0  0  0  0  0  0  0
   -3.0595   -5.4089   -2.0295 H   0  0  0  0  0  0  0  0  0  0  0  0
   -0.3880   -4.9018   -2.3911 H   0  0  0  0  0  0  0  0  0  0  0  0
   -2.6528    0.2402   -0.7049 N   0  0  0  0  0  0  0  0  0  0  0  0
   -3.4472   -0.7510   -0.1951 N   0  0  0  0  0  0  0  0  0  0  0  0
   -4.7377   -0.3341   -0.1229 C   0  0  0  0  0  0  0  0  0  0  0  0
   -4.7832    0.9633   -0.6067 C   0  0  0  0  0  0  0  0  0  0  0  0
   -3.4588    1.2876   -0.9606 C   0  0  0  0  0  0  0  0  0  0  0  0
   -5.8520   -1.1878    0.3982 C   0  0  0  0  0  0  0  0  0  0  0  0
   -5.9174   -2.1407   -0.1381 H   0  0  0  0  0  0  0  0  0  0  0  0
   -6.8036   -0.6615    0.2816 H   0  0  0  0  0  0  0  0  0  0  0  0
   -5.7192   -1.4215    1.4610 H   0  0  0  0  0  0  0  0  0  0  0  0
   -5.6589    1.5842   -0.7290 H   0  0  0  0  0  0  0  0  0  0  0  0
   -1.2680   -0.4711    1.7427 N   0  0  0  0  0  0  0  0  0  0  0  0
   -2.0921   -1.5562    1.7574 N   0  0  0  0  0  0  0  0  0  0  0  0
   -2.0740   -2.1524    2.9763 C   0  0  0  0  0  0  0  0  0  0  0  0
   -1.2137   -1.4209    3.7863 C   0  0  0  0  0  0  0  0  0  0  0  0
   -0.7430   -0.3700    2.9758 C   0  0  0  0  0  0  0  0  0  0  0  0
   -2.8789   -3.3722    3.3004 C   0  0  0  0  0  0  0  0  0  0  0  0
   -2.7027   -3.6683    4.3383 H   0  0  0  0  0  0  0  0  0  0  0  0
   -2.6098   -4.2142    2.6526 H   0  0  0  0  0  0  0  0  0  0  0  0
   -3.9523   -3.1936    3.1708 H   0  0  0  0  0  0  0  0  0  0  0  0
   -0.9979   -1.5924    4.8312 H   0  0  0  0  0  0  0  0  0  0  0  0
   -2.8295   -1.9989    0.4642 B   0  5  2  0  0  0  0  0  0  0  0  0
   -3.6965   -2.7779    0.7408 H   0  0  0  0  0  0  0  0  0  0  0  0
    1.6363   -2.8819   -1.4619 C   0  0  0  0  0  0  0  0  0  0  0  0
    2.4758   -3.0459   -0.3479 C   0  0  0  0  0  0  0  0  0  0  0  0
    3.8553   -2.8495   -0.4577 C   0  0  0  0  0  0  0  0  0  0  0  0
    4.4099   -2.5009   -1.6910 C   0  0  0  0  0  0  0  0  0  0  0  0
    3.5835   -2.3633   -2.8104 C   0  0  0  0  0  0  0  0  0  0  0  0
    2.2056   -2.5516   -2.6989 C   0  0  0  0  0  0  0  0  0  0  0  0
    2.0383   -3.3302    0.6064 H   0  0  0  0  0  0  0  0  0  0  0  0
    4.4864   -2.9562    0.4195 H   0  0  0  0  0  0  0  0  0  0  0  0
    5.4816   -2.3422   -1.7817 H   0  0  0  0  0  0  0  0  0  0  0  0
    4.0105   -2.0867   -3.7706 H   0  0  0  0  0  0  0  0  0  0  0  0
    1.5569   -2.3942   -3.5528 H   0  0  0  0  0  0  0  0  0  0  0  0
   -2.9941    2.5699   -1.5152 C   0  0  0  0  0  0  0  0  0  0  0  0
   -2.0885    2.6226   -2.5831 C   0  0  0  0  0  0  0  0  0  0  0  0
   -1.6585    3.8531   -3.0798 C   0  0  0  0  0  0  0  0  0  0  0  0
   -2.1369    5.0450   -2.5283 C   0  0  0  0  0  0  0  0  0  0  0  0
   -3.0548    4.9992   -1.4755 C   0  0  0  0  0  0  0  0  0  0  0  0
   -3.4819    3.7699   -0.9740 C   0  0  0  0  0  0  0  0  0  0  0  0
   -1.7015    1.7009   -2.9994 H   0  0  0  0  0  0  0  0  0  0  0  0
   -0.9468    3.8757   -3.9008 H   0  0  0  0  0  0  0  0  0  0  0  0
   -1.8008    6.0026   -2.9181 H   0  0  0  0  0  0  0  0  0  0  0  0
   -3.4331    5.9208   -1.0402 H   0  0  0  0  0  0  0  0  0  0  0  0
   -4.1800    3.7327   -0.1417 H   0  0  0  0  0  0  0  0  0  0  0  0
    0.1578    0.7380    3.3344 C   0  0  0  0  0  0  0  0  0  0  0  0
   -0.1426    2.0514    2.9369 C   0  0  0  0  0  0  0  0  0  0  0  0
    0.7223    3.0983    3.2538 C   0  0  0  0  0  0  0  0  0  0  0  0
    1.9001    2.8498    3.9668 C   0  0  0  0  0  0  0  0  0  0  0  0
    2.2057    1.5463    4.3678 C   0  0  0  0  0  0  0  0  0  0  0  0
    1.3369    0.4983    4.0605 C   0  0  0  0  0  0  0  0  0  0  0  0
   -1.0462    2.2349    2.3678 H   0  0  0  0  0  0  0  0  0  0  0  0
    0.4767    4.1097    2.9406 H   0  0  0  0  0  0  0  0  0  0  0  0
    2.5744    3.6669    4.2095 H   0  0  0  0  0  0  0  0  0  0  0  0
    3.1238    1.3427    4.9115 H   0  0  0  0  0  0  0  0  0  0  0  0
    1.5814   -0.5186    4.3551 H   0  0  0  0  0  0  0  0  0  0  0  0
    2.3591    2.2594    0.0948 C   0  0  0  0  0  0  0  0  0  0  0  0
    2.5871    0.7549   -0.1465 C   0  0  2  0  0  0  0  0  0  0  0  0
    1.5458   -0.0458    0.4998 N   0  0  0  0  0  0  0  0  0  0  0  0
    3.9705    0.3880    0.3949 C   0  0  0  0  0  0  0  0  0  0  0  0
    4.1684   -0.1648    1.4561 O   0  0  0  0  0  0  0  0  0  0  0  0
    4.9336    0.7681   -0.4607 O   0  0  0  0  0  0  0  0  0  0  0  0
    6.2899    0.4258   -0.0877 C   0  0  0  0  0  0  0  0  0  0  0  0
    7.1781    0.7803   -1.2645 C   0  0  0  0  0  0  0  0  0  0  0  0
    3.1751    2.8363   -0.3544 H   0  0  0  0  0  0  0  0  0  0  0  0
    2.3244    2.4677    1.1709 H   0  0  0  0  0  0  0  0  0  0  0  0
    2.5556    0.5428   -1.2180 H   0  0  0  0  0  0  0  0  0  0  0  0
    1.5435    0.1437    1.5028 H   0  0  0  0  0  0  0  0  0  0  0  0
    1.7939   -1.0302    0.4012 H   0  0  0  0  0  0  0  0  0  0  0  0
    6.3241   -0.6421    0.1496 H   0  0  0  0  0  0  0  0  0  0  0  0
    6.5565    0.9783    0.8199 H   0  0  0  0  0  0  0  0  0  0  0  0
    7.1130    1.8485   -1.4949 H   0  0  0  0  0  0  0  0  0  0  0  0
    6.8771    0.2175   -2.1540 H   0  0  0  0  0  0  0  0  0  0  0  0
    8.2209    0.5376   -1.0333 H   0  0  0  0  0  0  0  0  0  0  0  0
    0.3526    0.2072   -2.6252 Cl  0  0  0  0  0  0  0  0  0  0  0  0
  1  2  1  0  0  0  0
  3  2  1  0  0  0  0
  3 69  1  0  0  0  0
  4  5  1  0  0  0  0
  4  1  9  0  0  0  0
  5 34  1  0  0  0  0
  6  5  1  0  0  0  0
  7  8  1  0  0  0  0
  7  6  2  0  0  0  0
  8  4  2  0  0  0  0
  9  6  1  0  0  0  0
  9 11  1  0  0  0  0
 10  9  1  0  0  0  0
 12  9  1  0  0  0  0
 13  7  1  0  0  0  0
 14 15  1  0  0  0  0
 14  1  9  0  0  0  0
 15 16  1  0  0  0  0
 15 34  1  0  0  0  0
 16 19  1  0  0  0  0
 17 16  2  0  0  0  0
 18 14  2  0  0  0  0
 18 17  1  0  0  0  0
 19 22  1  0  0  0  0
 20 19  1  0  0  0  0
 21 19  1  0  0  0  0
 23 17  1  0  0  0  0
 24 25  1  0  0  0  0
 24 28  2  0  0  0  0
 24  1  9  0  0  0  0
 25 26  1  0  0  0  0
 26 29  1  0  0  0  0
 26 27  2  0  0  0  0
 27 33  1  0  0  0  0
 28 58  1  0  0  0  0
 28 27  1  0  0  0  0
 29 30  1  0  0  0  0
 31 29  1  0  0  0  0
 32 29  1  0  0  0  0
 34 35  1  1  0  0  0
 34 25  1  0  0  0  0
 36  8  1  0  0  0  0
 36 37  2  0  0  0  0
 37 42  1  0  0  0  0
 38 37  1  0  0  0  0
 38 43  1  0  0  0  0
 39 38  2  0  0  0  0
 40 41  2  0  0  0  0
 40 39  1  0  0  0  0
 41 36  1  0  0  0  0
 44 39  1  0  0  0  0
 45 40  1  0  0  0  0
 46 41  1  0  0  0  0
 47 52  2  0  0  0  0
 47 18  1  0  0  0  0
 48 47  1  0  0  0  0
 49 48  2  0  0  0  0
 49 50  1  0  0  0  0
 50 51  2  0  0  0  0
 51 56  1  0  0  0  0
 51 52  1  0  0  0  0
 52 57  1  0  0  0  0
 53 48  1  0  0  0  0
 54 49  1  0  0  0  0
 55 50  1  0  0  0  0
 58 63  2  0  0  0  0
 59 60  2  0  0  0  0
 59 58  1  0  0  0  0
 60 61  1  0  0  0  0
 61 66  1  0  0  0  0
 61 62  2  0  0  0  0
 62 67  1  0  0  0  0
 63 68  1  0  0  0  0
 63 62  1  0  0  0  0
 64 59  1  0  0  0  0
 65 60  1  0  0  0  0
 69 78  1  0  0  0  0
 70 79  1  6  0  0  0
 70 69  1  0  0  0  0
 70 72  1  0  0  0  0
 70 71  1  0  0  0  0
 71 80  1  0  0  0  0
 71  1  9  0  0  0  0
 72 73  2  0  0  0  0
 74 75  1  0  0  0  0
 74 72  1  0  0  0  0
 75 82  1  0  0  0  0
 75 83  1  0  0  0  0
 76 86  1  0  0  0  0
 76 75  1  0  0  0  0
 77 69  1  0  0  0  0
 81 71  1  0  0  0  0
 84 76  1  0  0  0  0
 85 76  1  0  0  0  0
 87  1  1  0  0  0  0
M  CHG  2   1   1  34  -1
M  END
$$$$
