
 OpenBabel02052520083D

 87 95  0  0  0  0  0  0  0  0999 V2000
    0.5551   -0.0216   -0.5731 Fe  0  3  0  0  0  0  0  0  0  0  0  0
   -0.0203    1.9343    0.3980 O   0  0  0  0  0  0  0  0  0  0  0  0
   -1.1050    2.8881   -0.1465 S   0  0  0  0  0  0  0  0  0  0  0  0
    0.9611   -0.7172    1.6044 N   0  0  0  0  0  0  0  0  0  0  0  0
    2.2838   -0.9680    1.8263 N   0  0  0  0  0  0  0  0  0  0  0  0
    2.5983   -0.7440    3.1259 C   0  0  0  0  0  0  0  0  0  0  0  0
    1.4339   -0.3510    3.7776 C   0  0  0  0  0  0  0  0  0  0  0  0
    0.4351   -0.3638    2.7884 C   0  0  0  0  0  0  0  0  0  0  0  0
    3.9808   -0.9166    3.6733 C   0  0  0  0  0  0  0  0  0  0  0  0
    4.6904   -0.2384    3.1853 H   0  0  0  0  0  0  0  0  0  0  0  0
    4.3513   -1.9370    3.5248 H   0  0  0  0  0  0  0  0  0  0  0  0
    3.9858   -0.7009    4.7454 H   0  0  0  0  0  0  0  0  0  0  0  0
    1.3146   -0.1364    4.8300 H   0  0  0  0  0  0  0  0  0  0  0  0
    2.5844    0.7734   -0.4486 N   0  0  0  0  0  0  0  0  0  0  0  0
    3.5865   -0.0935   -0.1222 N   0  0  0  0  0  0  0  0  0  0  0  0
    4.7931    0.5244   -0.2120 C   0  0  0  0  0  0  0  0  0  0  0  0
    4.5590    1.8333   -0.6097 C   0  0  0  0  0  0  0  0  0  0  0  0
    3.1618    1.9490   -0.7380 C   0  0  0  0  0  0  0  0  0  0  0  0
    6.0908   -0.1591    0.0895 C   0  0  0  0  0  0  0  0  0  0  0  0
    6.1821   -0.4115    1.1526 H   0  0  0  0  0  0  0  0  0  0  0  0
    6.9241    0.4972   -0.1770 H   0  0  0  0  0  0  0  0  0  0  0  0
    6.1940   -1.0921   -0.4747 H   0  0  0  0  0  0  0  0  0  0  0  0
    5.2948    2.6035   -0.7910 H   0  0  0  0  0  0  0  0  0  0  0  0
    1.3206   -2.0812   -0.8548 N   0  0  0  0  0  0  0  0  0  0  0  0
    2.4794   -2.4146   -0.2117 N   0  0  0  0  0  0  0  0  0  0  0  0
    2.6106   -3.7670   -0.1474 C   0  0  0  0  0  0  0  0  0  0  0  0
    1.5044   -4.3242   -0.7708 C   0  0  0  0  0  0  0  0  0  0  0  0
    0.7221   -3.2336   -1.1955 C   0  0  0  0  0  0  0  0  0  0  0  0
    3.7715   -4.4539    0.5024 C   0  0  0  0  0  0  0  0  0  0  0  0
    3.7059   -5.5316    0.3277 H   0  0  0  0  0  0  0  0  0  0  0  0
    3.7877   -4.2843    1.5854 H   0  0  0  0  0  0  0  0  0  0  0  0
    4.7271   -4.0974    0.1033 H   0  0  0  0  0  0  0  0  0  0  0  0
    1.3019   -5.3738   -0.9287 H   0  0  0  0  0  0  0  0  0  0  0  0
    3.2254   -1.3771    0.6493 B   0  5  2  0  0  0  0  0  0  0  0  0
    4.2225   -1.8686    1.0922 H   0  0  0  0  0  0  0  0  0  0  0  0
   -1.0173   -0.1664    2.9544 C   0  0  0  0  0  0  0  0  0  0  0  0
   -1.8965   -1.2230    2.6645 C   0  0  0  0  0  0  0  0  0  0  0  0
   -3.2748   -1.0671    2.8224 C   0  0  0  0  0  0  0  0  0  0  0  0
   -3.7917    0.1494    3.2780 C   0  0  0  0  0  0  0  0  0  0  0  0
   -2.9237    1.2029    3.5802 C   0  0  0  0  0  0  0  0  0  0  0  0
   -1.5446    1.0459    3.4228 C   0  0  0  0  0  0  0  0  0  0  0  0
   -1.4843   -2.1663    2.3165 H   0  0  0  0  0  0  0  0  0  0  0  0
   -3.9428   -1.8876    2.5773 H   0  0  0  0  0  0  0  0  0  0  0  0
   -4.8646    0.2765    3.3951 H   0  0  0  0  0  0  0  0  0  0  0  0
   -3.3216    2.1521    3.9288 H   0  0  0  0  0  0  0  0  0  0  0  0
   -0.8680    1.8681    3.6359 H   0  0  0  0  0  0  0  0  0  0  0  0
    2.3963    3.1796   -1.0492 C   0  0  0  0  0  0  0  0  0  0  0  0
    2.2397    4.1500   -0.0474 C   0  0  0  0  0  0  0  0  0  0  0  0
    1.5320    5.3250   -0.3010 C   0  0  0  0  0  0  0  0  0  0  0  0
    0.9747    5.5441   -1.5643 C   0  0  0  0  0  0  0  0  0  0  0  0
    1.1366    4.5865   -2.5683 C   0  0  0  0  0  0  0  0  0  0  0  0
    1.8493    3.4123   -2.3157 C   0  0  0  0  0  0  0  0  0  0  0  0
    2.6623    3.9657    0.9363 H   0  0  0  0  0  0  0  0  0  0  0  0
    1.4126    6.0658    0.4855 H   0  0  0  0  0  0  0  0  0  0  0  0
    0.4202    6.4576   -1.7647 H   0  0  0  0  0  0  0  0  0  0  0  0
    0.7064    4.7493   -3.5529 H   0  0  0  0  0  0  0  0  0  0  0  0
    1.9571    2.6608   -3.0875 H   0  0  0  0  0  0  0  0  0  0  0  0
   -0.6025   -3.2668   -1.8424 C   0  0  0  0  0  0  0  0  0  0  0  0
   -0.8506   -2.5782   -3.0378 C   0  0  0  0  0  0  0  0  0  0  0  0
   -2.1363   -2.5610   -3.5836 C   0  0  0  0  0  0  0  0  0  0  0  0
   -3.1816   -3.2369   -2.9497 C   0  0  0  0  0  0  0  0  0  0  0  0
   -2.9361   -3.9448   -1.7706 C   0  0  0  0  0  0  0  0  0  0  0  0
   -1.6538   -3.9634   -1.2226 C   0  0  0  0  0  0  0  0  0  0  0  0
   -0.0471   -2.0272   -3.5103 H   0  0  0  0  0  0  0  0  0  0  0  0
   -2.3176   -2.0073   -4.5007 H   0  0  0  0  0  0  0  0  0  0  0  0
   -4.1845   -3.2072   -3.3666 H   0  0  0  0  0  0  0  0  0  0  0  0
   -3.7476   -4.4630   -1.2675 H   0  0  0  0  0  0  0  0  0  0  0  0
   -1.4604   -4.4956   -0.2945 H   0  0  0  0  0  0  0  0  0  0  0  0
   -2.3729    1.8148   -0.9324 C   0  0  0  0  0  0  0  0  0  0  0  0
   -2.5872    0.5229   -0.1218 C   0  0  2  0  0  0  0  0  0  0  0  0
   -1.6394   -0.5268   -0.5117 N   0  0  0  0  0  0  0  0  0  0  0  0
   -4.0333    0.0224   -0.1818 C   0  0  0  0  0  0  0  0  0  0  0  0
   -4.3540   -1.1202   -0.4249 O   0  0  0  0  0  0  0  0  0  0  0  0
   -4.8990    0.9990    0.1483 O   0  0  0  0  0  0  0  0  0  0  0  0
   -6.2867    0.6042    0.2657 C   0  0  0  0  0  0  0  0  0  0  0  0
   -7.0554    1.8181    0.7507 C   0  0  0  0  0  0  0  0  0  0  0  0
   -3.2819    2.4228   -0.9536 H   0  0  0  0  0  0  0  0  0  0  0  0
   -2.0427    1.5874   -1.9518 H   0  0  0  0  0  0  0  0  0  0  0  0
   -2.4142    0.7461    0.9328 H   0  0  0  0  0  0  0  0  0  0  0  0
   -1.8133   -0.8047   -1.4798 H   0  0  0  0  0  0  0  0  0  0  0  0
   -1.8275   -1.3622    0.0404 H   0  0  0  0  0  0  0  0  0  0  0  0
   -6.3505   -0.2347    0.9667 H   0  0  0  0  0  0  0  0  0  0  0  0
   -6.6367    0.2500   -0.7094 H   0  0  0  0  0  0  0  0  0  0  0  0
   -6.9648    2.6457    0.0399 H   0  0  0  0  0  0  0  0  0  0  0  0
   -6.6738    2.1534    1.7206 H   0  0  0  0  0  0  0  0  0  0  0  0
   -8.1166    1.5701    0.8607 H   0  0  0  0  0  0  0  0  0  0  0  0
    0.1718    0.6117   -2.8659 Cl  0  0  0  0  0  0  0  0  0  0  0  0
  1  2  1  0  0  0  0
  3  2  1  0  0  0  0
  4  5  1  0  0  0  0
  4  8  2  0  0  0  0
  4  1  9  0  0  0  0
  5  6  1  0  0  0  0
  6  9  1  0  0  0  0
  6  7  2  0  0  0  0
  7 13  1  0  0  0  0
  8 36  1  0  0  0  0
  8  7  1  0  0  0  0
  9 12  1  0  0  0  0
 10  9  1  0  0  0  0
 11  9  1  0  0  0  0
 14 15  1  0  0  0  0
 14  1  9  0  0  0  0
 15 34  1  0  0  0  0
 16 15  1  0  0  0  0
 16 19  1  0  0  0  0
 17 16  2  0  0  0  0
 18 17  1  0  0  0  0
 18 14  2  0  0  0  0
 19 20  1  0  0  0  0
 21 19  1  0  0  0  0
 22 19  1  0  0  0  0
 23 17  1  0  0  0  0
 24 25  1  0  0  0  0
 24  1  9  0  0  0  0
 25 26  1  0  0  0  0
 25 34  1  0  0  0  0
 26 29  1  0  0  0  0
 27 26  2  0  0  0  0
 28 24  2  0  0  0  0
 28 27  1  0  0  0  0
 29 31  1  0  0  0  0
 30 29  1  0  0  0  0
 32 29  1  0  0  0  0
 33 27  1  0  0  0  0
 34 35  1  1  0  0  0
 34  5  1  0  0  0  0
 36 41  2  0  0  0  0
 37 38  2  0  0  0  0
 37 36  1  0  0  0  0
 38 39  1  0  0  0  0
 39 44  1  0  0  0  0
 39 40  2  0  0  0  0
 40 45  1  0  0  0  0
 41 40  1  0  0  0  0
 41 46  1  0  0  0  0
 42 37  1  0  0  0  0
 43 38  1  0  0  0  0
 47 18  1  0  0  0  0
 47 48  2  0  0  0  0
 48 53  1  0  0  0  0
 49 48  1  0  0  0  0
 49 54  1  0  0  0  0
 50 49  2  0  0  0  0
 51 52  2  0  0  0  0
 51 50  1  0  0  0  0
 52 47  1  0  0  0  0
 55 50  1  0  0  0  0
 56 51  1  0  0  0  0
 57 52  1  0  0  0  0
 58 63  2  0  0  0  0
 58 28  1  0  0  0  0
 59 58  1  0  0  0  0
 60 59  2  0  0  0  0
 60 61  1  0  0  0  0
 61 62  2  0  0  0  0
 62 67  1  0  0  0  0
 62 63  1  0  0  0  0
 63 68  1  0  0  0  0
 64 59  1  0  0  0  0
 65 60  1  0  0  0  0
 66 61  1  0  0  0  0
 69  3  1  0  0  0  0
 69 70  1  0  0  0  0
 70 79  1  1  0  0  0
 71 70  1  0  0  0  0
 71 81  1  0  0  0  0
 71  1  9  0  0  0  0
 72 70  1  0  0  0  0
 72 74  1  0  0  0  0
 73 72  2  0  0  0  0
 74 75  1  0  0  0  0
 75 76  1  0  0  0  0
 75 82  1  0  0  0  0
 76 86  1  0  0  0  0
 76 85  1  0  0  0  0
 77 69  1  0  0  0  0
 78 69  1  0  0  0  0
 80 71  1  0  0  0  0
 83 75  1  0  0  0  0
 84 76  1  0  0  0  0
 87  1  1  0  0  0  0
M  CHG  2   1   1  34  -1
M  END
$$$$
