
 OpenBabel02052520083D

 89 97  0  0  0  0  0  0  0  0999 V2000
    0.5456    0.0750    0.1282 Fe  0  3  0  0  0  0  0  0  0  0  0  0
   -0.2328   -0.6322    1.8350 O   0  0  0  0  0  0  0  0  0  0  0  0
   -1.5658   -0.2892    2.5906 S   0  0  0  0  0  0  0  0  0  0  0  0
    1.0493   -1.8961   -0.8734 N   0  0  0  0  0  0  0  0  0  0  0  0
    2.1740   -1.8738   -1.6438 N   0  0  0  0  0  0  0  0  0  0  0  0
    2.1167   -2.8325   -2.6007 C   0  0  0  0  0  0  0  0  0  0  0  0
    0.9143   -3.5102   -2.4404 C   0  0  0  0  0  0  0  0  0  0  0  0
    0.2855   -2.9017   -1.3384 C   0  0  0  0  0  0  0  0  0  0  0  0
    3.2088   -3.0545   -3.5998 C   0  0  0  0  0  0  0  0  0  0  0  0
    4.1546   -3.3150   -3.1116 H   0  0  0  0  0  0  0  0  0  0  0  0
    3.3900   -2.1565   -4.2009 H   0  0  0  0  0  0  0  0  0  0  0  0
    2.9340   -3.8697   -4.2747 H   0  0  0  0  0  0  0  0  0  0  0  0
    0.5658   -4.3635   -3.0043 H   0  0  0  0  0  0  0  0  0  0  0  0
    2.5560   -0.1601    0.9336 N   0  0  0  0  0  0  0  0  0  0  0  0
    3.5141   -0.7110    0.1308 N   0  0  0  0  0  0  0  0  0  0  0  0
    4.5203   -1.2214    0.8826 C   0  0  0  0  0  0  0  0  0  0  0  0
    4.2068   -0.9876    2.2153 C   0  0  0  0  0  0  0  0  0  0  0  0
    2.9707   -0.3159    2.2061 C   0  0  0  0  0  0  0  0  0  0  0  0
    5.7223   -1.8904    0.2922 C   0  0  0  0  0  0  0  0  0  0  0  0
    5.4467   -2.7896   -0.2706 H   0  0  0  0  0  0  0  0  0  0  0  0
    6.4109   -2.1838    1.0892 H   0  0  0  0  0  0  0  0  0  0  0  0
    6.2558   -1.2264   -0.3970 H   0  0  0  0  0  0  0  0  0  0  0  0
    4.8100   -1.2281    3.0788 H   0  0  0  0  0  0  0  0  0  0  0  0
    1.4945    0.9186   -1.7787 N   0  0  0  0  0  0  0  0  0  0  0  0
    2.7962    0.5378   -1.9409 N   0  0  0  0  0  0  0  0  0  0  0  0
    3.5059    1.5140   -2.5600 C   0  0  0  0  0  0  0  0  0  0  0  0
    2.6305    2.5599   -2.8239 C   0  0  0  0  0  0  0  0  0  0  0  0
    1.3822    2.1412   -2.3285 C   0  0  0  0  0  0  0  0  0  0  0  0
    4.9651    1.3869   -2.8679 C   0  0  0  0  0  0  0  0  0  0  0  0
    5.3200    2.2935   -3.3656 H   0  0  0  0  0  0  0  0  0  0  0  0
    5.1676    0.5321   -3.5235 H   0  0  0  0  0  0  0  0  0  0  0  0
    5.5558    1.2444   -1.9555 H   0  0  0  0  0  0  0  0  0  0  0  0
    2.8516    3.4815   -3.3428 H   0  0  0  0  0  0  0  0  0  0  0  0
    3.2793   -0.8165   -1.3902 B   0  5  2  0  0  0  0  0  0  0  0  0
    4.2924   -1.1489   -1.9357 H   0  0  0  0  0  0  0  0  0  0  0  0
   -0.9807   -3.2841   -0.6937 C   0  0  0  0  0  0  0  0  0  0  0  0
   -2.1180   -3.5685   -1.4679 C   0  0  0  0  0  0  0  0  0  0  0  0
   -3.3204   -3.9271   -0.8557 C   0  0  0  0  0  0  0  0  0  0  0  0
   -3.3984   -4.0176    0.5370 C   0  0  0  0  0  0  0  0  0  0  0  0
   -2.2676   -3.7458    1.3137 C   0  0  0  0  0  0  0  0  0  0  0  0
   -1.0663   -3.3796    0.7049 C   0  0  0  0  0  0  0  0  0  0  0  0
   -2.0578   -3.4884   -2.5501 H   0  0  0  0  0  0  0  0  0  0  0  0
   -4.1962   -4.1308   -1.4660 H   0  0  0  0  0  0  0  0  0  0  0  0
   -4.3349   -4.2928    1.0141 H   0  0  0  0  0  0  0  0  0  0  0  0
   -2.3220   -3.8070    2.3967 H   0  0  0  0  0  0  0  0  0  0  0  0
   -0.1955   -3.1381    1.3040 H   0  0  0  0  0  0  0  0  0  0  0  0
    2.1959    0.1796    3.3544 C   0  0  0  0  0  0  0  0  0  0  0  0
    1.9926   -0.6408    4.4744 C   0  0  0  0  0  0  0  0  0  0  0  0
    1.2188   -0.1908    5.5439 C   0  0  0  0  0  0  0  0  0  0  0  0
    0.6423    1.0827    5.5059 C   0  0  0  0  0  0  0  0  0  0  0  0
    0.8566    1.9116    4.4013 C   0  0  0  0  0  0  0  0  0  0  0  0
    1.6387    1.4653    3.3373 C   0  0  0  0  0  0  0  0  0  0  0  0
    2.4185   -1.6407    4.4869 H   0  0  0  0  0  0  0  0  0  0  0  0
    1.0572   -0.8374    6.4028 H   0  0  0  0  0  0  0  0  0  0  0  0
    0.0300    1.4276    6.3350 H   0  0  0  0  0  0  0  0  0  0  0  0
    0.4068    2.8990    4.3528 H   0  0  0  0  0  0  0  0  0  0  0  0
    1.8002    2.0986    2.4743 H   0  0  0  0  0  0  0  0  0  0  0  0
    0.0863    2.8374   -2.4059 C   0  0  0  0  0  0  0  0  0  0  0  0
   -0.0617    4.1383   -1.9065 C   0  0  0  0  0  0  0  0  0  0  0  0
   -1.3040    4.7697   -1.9412 C   0  0  0  0  0  0  0  0  0  0  0  0
   -2.4130    4.1129   -2.4817 C   0  0  0  0  0  0  0  0  0  0  0  0
   -2.2726    2.8251   -3.0038 C   0  0  0  0  0  0  0  0  0  0  0  0
   -1.0253    2.1965   -2.9748 C   0  0  0  0  0  0  0  0  0  0  0  0
    0.7885    4.6294   -1.4431 H   0  0  0  0  0  0  0  0  0  0  0  0
   -1.4123    5.7622   -1.5149 H   0  0  0  0  0  0  0  0  0  0  0  0
   -3.3831    4.6022   -2.4919 H   0  0  0  0  0  0  0  0  0  0  0  0
   -3.1282    2.2992   -3.4159 H   0  0  0  0  0  0  0  0  0  0  0  0
   -0.9026    1.2026   -3.3972 H   0  0  0  0  0  0  0  0  0  0  0  0
   -2.7132    0.4089    1.3313 C   0  0  0  0  0  0  0  0  0  0  0  0
   -2.6690   -0.3769    0.0109 C   0  0  2  0  0  0  0  0  0  0  0  0
   -1.4902   -0.0326   -0.7953 N   0  0  0  0  0  0  0  0  0  0  0  0
   -3.9499   -0.2044   -0.8112 C   0  0  0  0  0  0  0  0  0  0  0  0
   -3.9742    0.1345   -1.9755 O   0  0  0  0  0  0  0  0  0  0  0  0
   -5.0349   -0.5326   -0.0919 O   0  0  0  0  0  0  0  0  0  0  0  0
   -6.3043   -0.4812   -0.7900 C   0  0  0  0  0  0  0  0  0  0  0  0
   -7.3699   -0.9293    0.1912 C   0  0  0  0  0  0  0  0  0  0  0  0
   -3.7005    0.3048    1.7918 H   0  0  0  0  0  0  0  0  0  0  0  0
   -2.5046    1.4704    1.1763 H   0  0  0  0  0  0  0  0  0  0  0  0
   -2.6175   -1.4387    0.2503 H   0  0  0  0  0  0  0  0  0  0  0  0
   -1.6109    0.9046   -1.1869 H   0  0  0  0  0  0  0  0  0  0  0  0
   -1.4494   -0.6573   -1.6003 H   0  0  0  0  0  0  0  0  0  0  0  0
   -6.2446   -1.1337   -1.6672 H   0  0  0  0  0  0  0  0  0  0  0  0
   -6.4672    0.5415   -1.1451 H   0  0  0  0  0  0  0  0  0  0  0  0
   -7.4000   -0.2662    1.0616 H   0  0  0  0  0  0  0  0  0  0  0  0
   -7.1709   -1.9481    0.5392 H   0  0  0  0  0  0  0  0  0  0  0  0
   -8.3527   -0.9124   -0.2917 H   0  0  0  0  0  0  0  0  0  0  0  0
    0.0304    1.9939    0.6563 N   0  0  0  0  0  0  0  0  0  0  0  0
   -0.4683    2.9481    1.1554 C   0  0  0  0  0  0  0  0  0  0  0  0
   -1.1761    4.2336    1.8507 S   0  0  0  0  0  0  0  0  0  0  0  0
  1 87  1  0  0  0  0
  1  2  1  0  0  0  0
  2  3  1  0  0  0  0
  4  1  9  0  0  0  0
  5 34  1  0  0  0  0
  5  4  1  0  0  0  0
  6  7  2  0  0  0  0
  6  5  1  0  0  0  0
  7  8  1  0  0  0  0
  8  4  2  0  0  0  0
  8 36  1  0  0  0  0
  9 10  1  0  0  0  0
  9  6  1  0  0  0  0
 11  9  1  0  0  0  0
 12  9  1  0  0  0  0
 13  7  1  0  0  0  0
 14 18  2  0  0  0  0
 14  1  9  0  0  0  0
 15 16  1  0  0  0  0
 15 14  1  0  0  0  0
 16 17  2  0  0  0  0
 17 23  1  0  0  0  0
 18 17  1  0  0  0  0
 18 47  1  0  0  0  0
 19 16  1  0  0  0  0
 19 21  1  0  0  0  0
 20 19  1  0  0  0  0
 22 19  1  0  0  0  0
 24  1  9  0  0  0  0
 25 24  1  0  0  0  0
 25 34  1  0  0  0  0
 26 25  1  0  0  0  0
 27 26  2  0  0  0  0
 27 28  1  0  0  0  0
 28 24  2  0  0  0  0
 29 26  1  0  0  0  0
 29 32  1  0  0  0  0
 30 29  1  0  0  0  0
 31 29  1  0  0  0  0
 33 27  1  0  0  0  0
 34 35  1  6  0  0  0
 34 15  1  0  0  0  0
 36 41  2  0  0  0  0
 37 38  2  0  0  0  0
 37 36  1  0  0  0  0
 38 39  1  0  0  0  0
 39 44  1  0  0  0  0
 39 40  2  0  0  0  0
 40 45  1  0  0  0  0
 41 46  1  0  0  0  0
 41 40  1  0  0  0  0
 42 37  1  0  0  0  0
 43 38  1  0  0  0  0
 47 48  2  0  0  0  0
 48 53  1  0  0  0  0
 48 49  1  0  0  0  0
 49 54  1  0  0  0  0
 50 49  2  0  0  0  0
 50 55  1  0  0  0  0
 51 50  1  0  0  0  0
 52 47  1  0  0  0  0
 52 51  2  0  0  0  0
 56 51  1  0  0  0  0
 57 52  1  0  0  0  0
 58 28  1  0  0  0  0
 58 59  2  0  0  0  0
 59 64  1  0  0  0  0
 60 59  1  0  0  0  0
 60 65  1  0  0  0  0
 61 60  2  0  0  0  0
 62 63  2  0  0  0  0
 62 61  1  0  0  0  0
 63 58  1  0  0  0  0
 66 61  1  0  0  0  0
 67 62  1  0  0  0  0
 68 63  1  0  0  0  0
 69 77  1  0  0  0  0
 69  3  1  0  0  0  0
 70 79  1  1  0  0  0
 70 69  1  0  0  0  0
 71 70  1  0  0  0  0
 71  1  9  0  0  0  0
 72 74  1  0  0  0  0
 72 70  1  0  0  0  0
 73 72  2  0  0  0  0
 75 74  1  0  0  0  0
 75 76  1  0  0  0  0
 76 85  1  0  0  0  0
 76 84  1  0  0  0  0
 78 69  1  0  0  0  0
 80 71  1  0  0  0  0
 81 71  1  0  0  0  0
 82 75  1  0  0  0  0
 83 75  1  0  0  0  0
 86 76  1  0  0  0  0
 87 88  2  0  0  0  0
 88 89  2  0  0  0  0
M  CHG  2   1   1  34  -1
M  END
$$$$
