
 OpenBabel02052520083D

 87 95  0  0  0  0  0  0  0  0999 V2000
   -0.5137    0.4707    0.1075 Fe  0  3  0  0  0  0  0  0  0  0  0  0
   -0.0098    1.7212    1.4444 O   0  0  0  0  0  0  0  0  0  0  0  0
    1.2883    2.7173    1.3594 S   0  0  0  0  0  0  0  0  0  0  0  0
   -0.8287   -1.4978   -1.2898 N   0  0  0  0  0  0  0  0  0  0  0  0
   -1.9895   -2.1820   -1.0846 N   0  0  0  0  0  0  0  0  0  0  0  0
   -1.9982   -3.3417   -1.7947 C   0  0  0  0  0  0  0  0  0  0  0  0
   -0.7970   -3.4130   -2.4810 C   0  0  0  0  0  0  0  0  0  0  0  0
   -0.0939   -2.2379   -2.1417 C   0  0  0  0  0  0  0  0  0  0  0  0
   -3.1421   -4.3081   -1.7904 C   0  0  0  0  0  0  0  0  0  0  0  0
   -4.0800   -3.8293   -2.0927 H   0  0  0  0  0  0  0  0  0  0  0  0
   -3.3057   -4.7426   -0.7976 H   0  0  0  0  0  0  0  0  0  0  0  0
   -2.9351   -5.1249   -2.4875 H   0  0  0  0  0  0  0  0  0  0  0  0
   -0.4837   -4.1857   -3.1681 H   0  0  0  0  0  0  0  0  0  0  0  0
   -2.5996    0.8124   -0.3014 N   0  0  0  0  0  0  0  0  0  0  0  0
   -3.4590   -0.2446   -0.4089 N   0  0  0  0  0  0  0  0  0  0  0  0
   -4.5938    0.1415   -1.0442 C   0  0  0  0  0  0  0  0  0  0  0  0
   -4.4673    1.4894   -1.3470 C   0  0  0  0  0  0  0  0  0  0  0  0
   -3.2043    1.8767   -0.8655 C   0  0  0  0  0  0  0  0  0  0  0  0
   -5.7347   -0.7848   -1.3288 C   0  0  0  0  0  0  0  0  0  0  0  0
   -5.4376   -1.5928   -2.0074 H   0  0  0  0  0  0  0  0  0  0  0  0
   -6.5506   -0.2288   -1.7987 H   0  0  0  0  0  0  0  0  0  0  0  0
   -6.1163   -1.2509   -0.4140 H   0  0  0  0  0  0  0  0  0  0  0  0
   -5.2047    2.1233   -1.8171 H   0  0  0  0  0  0  0  0  0  0  0  0
   -1.2704   -0.9797    1.6368 N   0  0  0  0  0  0  0  0  0  0  0  0
   -2.3786   -1.7239    1.3528 N   0  0  0  0  0  0  0  0  0  0  0  0
   -2.6385   -2.5890    2.3653 C   0  0  0  0  0  0  0  0  0  0  0  0
   -1.6648   -2.3980    3.3365 C   0  0  0  0  0  0  0  0  0  0  0  0
   -0.8320   -1.3789    2.8446 C   0  0  0  0  0  0  0  0  0  0  0  0
   -3.7907   -3.5450    2.3639 C   0  0  0  0  0  0  0  0  0  0  0  0
   -3.8327   -4.0700    3.3223 H   0  0  0  0  0  0  0  0  0  0  0  0
   -3.6966   -4.2940    1.5695 H   0  0  0  0  0  0  0  0  0  0  0  0
   -4.7439   -3.0278    2.2121 H   0  0  0  0  0  0  0  0  0  0  0  0
   -1.5799   -2.9045    4.2869 H   0  0  0  0  0  0  0  0  0  0  0  0
   -3.0243   -1.6776   -0.0503 B   0  5  2  0  0  0  0  0  0  0  0  0
   -3.9794   -2.3953   -0.0657 H   0  0  0  0  0  0  0  0  0  0  0  0
    1.2497   -1.8574   -2.6181 C   0  0  0  0  0  0  0  0  0  0  0  0
    2.2309   -2.8523   -2.7785 C   0  0  0  0  0  0  0  0  0  0  0  0
    3.5066   -2.5268   -3.2376 C   0  0  0  0  0  0  0  0  0  0  0  0
    3.8233   -1.2009   -3.5439 C   0  0  0  0  0  0  0  0  0  0  0  0
    2.8562   -0.2055   -3.3816 C   0  0  0  0  0  0  0  0  0  0  0  0
    1.5752   -0.5266   -2.9297 C   0  0  0  0  0  0  0  0  0  0  0  0
    1.9932   -3.8806   -2.5207 H   0  0  0  0  0  0  0  0  0  0  0  0
    4.2552   -3.3070   -3.3459 H   0  0  0  0  0  0  0  0  0  0  0  0
    4.8169   -0.9450   -3.9033 H   0  0  0  0  0  0  0  0  0  0  0  0
    3.0970    0.8303   -3.6056 H   0  0  0  0  0  0  0  0  0  0  0  0
    0.8395    0.2517   -2.7638 H   0  0  0  0  0  0  0  0  0  0  0  0
   -2.6114    3.2216   -0.9209 C   0  0  0  0  0  0  0  0  0  0  0  0
   -2.7714    4.0019   -2.0764 C   0  0  0  0  0  0  0  0  0  0  0  0
   -2.2424    5.2903   -2.1374 C   0  0  0  0  0  0  0  0  0  0  0  0
   -1.5509    5.8164   -1.0431 C   0  0  0  0  0  0  0  0  0  0  0  0
   -1.3964    5.0475    0.1127 C   0  0  0  0  0  0  0  0  0  0  0  0
   -1.9293    3.7612    0.1782 C   0  0  0  0  0  0  0  0  0  0  0  0
   -3.2925    3.5840   -2.9335 H   0  0  0  0  0  0  0  0  0  0  0  0
   -2.3636    5.8808   -3.0418 H   0  0  0  0  0  0  0  0  0  0  0  0
   -1.1348    6.8193   -1.0921 H   0  0  0  0  0  0  0  0  0  0  0  0
   -0.8600    5.4488    0.9683 H   0  0  0  0  0  0  0  0  0  0  0  0
   -1.7980    3.1585    1.0683 H   0  0  0  0  0  0  0  0  0  0  0  0
    0.3641   -0.8199    3.5133 C   0  0  0  0  0  0  0  0  0  0  0  0
    0.3854    0.4984    3.9891 C   0  0  0  0  0  0  0  0  0  0  0  0
    1.5154    0.9919    4.6401 C   0  0  0  0  0  0  0  0  0  0  0  0
    2.6394    0.1787    4.8176 C   0  0  0  0  0  0  0  0  0  0  0  0
    2.6267   -1.1369    4.3482 C   0  0  0  0  0  0  0  0  0  0  0  0
    1.4900   -1.6369    3.7085 C   0  0  0  0  0  0  0  0  0  0  0  0
   -0.4732    1.1356    3.8196 H   0  0  0  0  0  0  0  0  0  0  0  0
    1.5229    2.0183    4.9949 H   0  0  0  0  0  0  0  0  0  0  0  0
    3.5211    0.5698    5.3184 H   0  0  0  0  0  0  0  0  0  0  0  0
    3.4971   -1.7740    4.4780 H   0  0  0  0  0  0  0  0  0  0  0  0
    1.4722   -2.6611    3.3449 H   0  0  0  0  0  0  0  0  0  0  0  0
    2.6831    1.5392    1.2637 C   0  0  0  0  0  0  0  0  0  0  0  0
    2.5631    0.5248    0.1140 C   0  0  2  0  0  0  0  0  0  0  0  0
    1.4800   -0.4365    0.3773 N   0  0  0  0  0  0  0  0  0  0  0  0
    3.8822   -0.2179   -0.0842 C   0  0  0  0  0  0  0  0  0  0  0  0
    4.0698   -1.3777    0.2166 O   0  0  0  0  0  0  0  0  0  0  0  0
    4.8042    0.5859   -0.6406 O   0  0  0  0  0  0  0  0  0  0  0  0
    6.0788   -0.0282   -0.9462 C   0  0  0  0  0  0  0  0  0  0  0  0
    6.8616    0.9649   -1.7831 C   0  0  0  0  0  0  0  0  0  0  0  0
    3.5667    2.1665    1.1016 H   0  0  0  0  0  0  0  0  0  0  0  0
    2.8019    1.0124    2.2174 H   0  0  0  0  0  0  0  0  0  0  0  0
    2.3151    1.0566   -0.8061 H   0  0  0  0  0  0  0  0  0  0  0  0
    1.5743   -0.8165    1.3202 H   0  0  0  0  0  0  0  0  0  0  0  0
    1.5692   -1.2273   -0.2600 H   0  0  0  0  0  0  0  0  0  0  0  0
    5.8913   -0.9638   -1.4810 H   0  0  0  0  0  0  0  0  0  0  0  0
    6.5860   -0.2723   -0.0062 H   0  0  0  0  0  0  0  0  0  0  0  0
    7.0110    1.9033   -1.2395 H   0  0  0  0  0  0  0  0  0  0  0  0
    6.3264    1.1873   -2.7122 H   0  0  0  0  0  0  0  0  0  0  0  0
    7.8431    0.5499   -2.0369 H   0  0  0  0  0  0  0  0  0  0  0  0
    0.0449    1.4188   -1.3317 F   0  0  0  0  0  0  0  0  0  0  0  0
  1  2  1  0  0  0  0
  3  2  1  0  0  0  0
  4  5  1  0  0  0  0
  4  1  9  0  0  0  0
  5 34  1  0  0  0  0
  6  9  1  0  0  0  0
  6  5  1  0  0  0  0
  7  8  1  0  0  0  0
  7  6  2  0  0  0  0
  8  4  2  0  0  0  0
  9 11  1  0  0  0  0
 10  9  1  0  0  0  0
 12  9  1  0  0  0  0
 13  7  1  0  0  0  0
 14  1  9  0  0  0  0
 15 14  1  0  0  0  0
 15 34  1  0  0  0  0
 16 15  1  0  0  0  0
 17 16  2  0  0  0  0
 17 18  1  0  0  0  0
 18 14  2  0  0  0  0
 19 16  1  0  0  0  0
 19 22  1  0  0  0  0
 20 19  1  0  0  0  0
 21 19  1  0  0  0  0
 23 17  1  0  0  0  0
 24 28  2  0  0  0  0
 24  1  9  0  0  0  0
 25 24  1  0  0  0  0
 25 26  1  0  0  0  0
 26 27  2  0  0  0  0
 27 33  1  0  0  0  0
 28 27  1  0  0  0  0
 28 58  1  0  0  0  0
 29 26  1  0  0  0  0
 29 30  1  0  0  0  0
 31 29  1  0  0  0  0
 32 29  1  0  0  0  0
 34 35  1  6  0  0  0
 34 25  1  0  0  0  0
 36  8  1  0  0  0  0
 37 36  1  0  0  0  0
 37 42  1  0  0  0  0
 38 37  2  0  0  0  0
 39 40  2  0  0  0  0
 39 38  1  0  0  0  0
 40 41  1  0  0  0  0
 41 46  1  0  0  0  0
 41 36  2  0  0  0  0
 43 38  1  0  0  0  0
 44 39  1  0  0  0  0
 45 40  1  0  0  0  0
 47 18  1  0  0  0  0
 47 52  2  0  0  0  0
 48 47  1  0  0  0  0
 49 48  2  0  0  0  0
 49 50  1  0  0  0  0
 50 51  2  0  0  0  0
 51 52  1  0  0  0  0
 51 56  1  0  0  0  0
 52 57  1  0  0  0  0
 53 48  1  0  0  0  0
 54 49  1  0  0  0  0
 55 50  1  0  0  0  0
 58 63  1  0  0  0  0
 58 59  2  0  0  0  0
 59 60  1  0  0  0  0
 60 61  2  0  0  0  0
 60 65  1  0  0  0  0
 61 66  1  0  0  0  0
 62 67  1  0  0  0  0
 62 61  1  0  0  0  0
 63 62  2  0  0  0  0
 64 59  1  0  0  0  0
 68 63  1  0  0  0  0
 69  3  1  0  0  0  0
 69 78  1  0  0  0  0
 70 79  1  6  0  0  0
 70 71  1  0  0  0  0
 70 69  1  0  0  0  0
 71 80  1  0  0  0  0
 71  1  9  0  0  0  0
 72 70  1  0  0  0  0
 72 73  2  0  0  0  0
 74 72  1  0  0  0  0
 75 74  1  0  0  0  0
 75 83  1  0  0  0  0
 76 84  1  0  0  0  0
 76 75  1  0  0  0  0
 77 69  1  0  0  0  0
 81 71  1  0  0  0  0
 82 75  1  0  0  0  0
 85 76  1  0  0  0  0
 86 76  1  0  0  0  0
 87  1  1  0  0  0  0
M  CHG  2   1   1  34  -1
M  END
$$$$
