
 OpenBabel02052520083D

 52 56  0  0  0  0  0  0  0  0999 V2000
   -0.0270    0.0799   -0.5042 Fe  0  0  0  0  0  0  0  0  0  0  0  0
   -2.5133    0.0033   -0.0919 N   0  0  0  0  0  0  0  0  0  0  0  0
    2.3411   -0.2950   -0.1656 N   0  0  0  0  0  0  0  0  0  0  0  0
   -0.6073   -2.0832    0.1138 N   0  0  2  0  0  0  0  0  0  0  0  0
    0.3916    0.0507    1.8076 N   0  0  2  0  0  0  0  0  0  0  0  0
   -3.4390    0.9737    0.0641 C   0  0  0  0  0  0  0  0  0  0  0  0
   -2.9281   -1.2615   -0.3039 C   0  0  0  0  0  0  0  0  0  0  0  0
   -4.8118    0.6915    0.0039 C   0  0  0  0  0  0  0  0  0  0  0  0
   -4.2776   -1.6148   -0.3442 C   0  0  0  0  0  0  0  0  0  0  0  0
   -5.2372   -0.6162   -0.1958 C   0  0  0  0  0  0  0  0  0  0  0  0
    3.2457   -0.7180   -1.0711 C   0  0  0  0  0  0  0  0  0  0  0  0
    2.7634    0.0819    1.0572 C   0  0  0  0  0  0  0  0  0  0  0  0
    4.6123   -0.7773   -0.7556 C   0  0  0  0  0  0  0  0  0  0  0  0
    4.1010    0.0250    1.4420 C   0  0  0  0  0  0  0  0  0  0  0  0
    5.0450   -0.4092    0.5117 C   0  0  0  0  0  0  0  0  0  0  0  0
    1.7231    0.6560    1.9915 C   0  0  0  0  0  0  0  0  0  0  0  0
   -1.8766   -2.3106   -0.5897 C   0  0  0  0  0  0  0  0  0  0  0  0
    0.3768   -1.3572    2.2583 C   0  0  0  0  0  0  0  0  0  0  0  0
   -0.7352   -2.1568    1.5774 C   0  0  0  0  0  0  0  0  0  0  0  0
   -0.6194    0.8647    2.5023 C   0  0  0  0  0  0  0  0  0  0  0  0
    0.4184   -2.9943   -0.4124 C   0  0  0  0  0  0  0  0  0  0  0  0
   -5.5268    1.4998    0.1222 H   0  0  0  0  0  0  0  0  0  0  0  0
   -6.2965   -0.8556   -0.2344 H   0  0  0  0  0  0  0  0  0  0  0  0
   -4.5625   -2.6507   -0.5023 H   0  0  0  0  0  0  0  0  0  0  0  0
   -2.2816   -3.3145   -0.3750 H   0  0  0  0  0  0  0  0  0  0  0  0
   -1.6428   -2.2396   -1.6573 H   0  0  0  0  0  0  0  0  0  0  0  0
    5.3157   -1.1168   -1.5101 H   0  0  0  0  0  0  0  0  0  0  0  0
    6.0983   -0.4579    0.7744 H   0  0  0  0  0  0  0  0  0  0  0  0
    4.3926    0.3261    2.4438 H   0  0  0  0  0  0  0  0  0  0  0  0
    2.0572    0.5669    3.0385 H   0  0  0  0  0  0  0  0  0  0  0  0
    1.6224    1.7195    1.7482 H   0  0  0  0  0  0  0  0  0  0  0  0
   -1.7075   -1.7426    1.8546 H   0  0  0  0  0  0  0  0  0  0  0  0
   -0.7131   -3.2003    1.9344 H   0  0  0  0  0  0  0  0  0  0  0  0
    0.2667   -1.4181    3.3533 H   0  0  0  0  0  0  0  0  0  0  0  0
    1.3459   -1.7960    2.0085 H   0  0  0  0  0  0  0  0  0  0  0  0
   -0.4133    0.9301    3.5834 H   0  0  0  0  0  0  0  0  0  0  0  0
   -0.6129    1.8635    2.0612 H   0  0  0  0  0  0  0  0  0  0  0  0
   -1.6081    0.4308    2.3488 H   0  0  0  0  0  0  0  0  0  0  0  0
    0.5323   -2.7955   -1.4791 H   0  0  0  0  0  0  0  0  0  0  0  0
    0.1461   -4.0518   -0.2527 H   0  0  0  0  0  0  0  0  0  0  0  0
    1.3759   -2.7943    0.0705 H   0  0  0  0  0  0  0  0  0  0  0  0
   -2.9647    2.3744    0.3307 C   0  0  0  0  0  0  0  0  0  0  0  0
   -1.9926    2.5580   -0.1335 H   0  0  0  0  0  0  0  0  0  0  0  0
   -3.6898    3.1080   -0.0362 H   0  0  0  0  0  0  0  0  0  0  0  0
   -2.8515    2.5388    1.4104 H   0  0  0  0  0  0  0  0  0  0  0  0
    2.7638   -1.1341   -2.4355 C   0  0  0  0  0  0  0  0  0  0  0  0
    3.3287   -0.6028   -3.2109 H   0  0  0  0  0  0  0  0  0  0  0  0
    2.9400   -2.2076   -2.5890 H   0  0  0  0  0  0  0  0  0  0  0  0
    1.6949   -0.9260   -2.5568 H   0  0  0  0  0  0  0  0  0  0  0  0
   -0.3019   -0.4898   -2.2890 O   0  0  0  0  0  0  0  0  0  0  0  0
   -0.3259    0.2777   -2.8818 H   0  0  0  0  0  0  0  0  0  0  0  0
    0.5709    2.6446   -0.6670 Br  0  0  0  0  0  0  0  0  0  0  0  0
  2  6  1  0  0  0  0
  2  1  9  0  0  0  0
  3 12  1  0  0  0  0
  3  1  9  0  0  0  0
  4 21  1  6  0  0  0
  4 19  1  0  0  0  0
  4  1  9  0  0  0  0
  5 16  1  0  0  0  0
  5 18  1  0  0  0  0
  5 20  1  1  0  0  0
  5  1  9  0  0  0  0
  6 42  1  0  0  0  0
  7  2  2  0  0  0  0
  8  6  2  0  0  0  0
  8 22  1  0  0  0  0
  9  7  1  0  0  0  0
  9 10  2  0  0  0  0
 10  8  1  0  0  0  0
 11 13  1  0  0  0  0
 11  3  2  0  0  0  0
 12 14  2  0  0  0  0
 12 16  1  0  0  0  0
 13 15  2  0  0  0  0
 14 29  1  0  0  0  0
 15 28  1  0  0  0  0
 15 14  1  0  0  0  0
 16 30  1  0  0  0  0
 17 25  1  0  0  0  0
 17  7  1  0  0  0  0
 17  4  1  0  0  0  0
 18 34  1  0  0  0  0
 19 32  1  0  0  0  0
 19 33  1  0  0  0  0
 19 18  1  0  0  0  0
 20 36  1  0  0  0  0
 21 40  1  0  0  0  0
 21 41  1  0  0  0  0
 23 10  1  0  0  0  0
 24  9  1  0  0  0  0
 26 17  1  0  0  0  0
 27 13  1  0  0  0  0
 31 16  1  0  0  0  0
 35 18  1  0  0  0  0
 37 20  1  0  0  0  0
 38 20  1  0  0  0  0
 39 21  1  0  0  0  0
 42 45  1  0  0  0  0
 43 42  1  0  0  0  0
 44 42  1  0  0  0  0
 46 11  1  0  0  0  0
 47 46  1  0  0  0  0
 48 46  1  0  0  0  0
 49 46  1  0  0  0  0
 50  1  1  0  0  0  0
 51 50  1  0  0  0  0
 52  1  1  0  0  0  0
M  END
$$$$
