
 OpenBabel02052520083D

 46 50  0  0  0  0  0  0  0  0999 V2000
   -0.0651   -0.0125   -0.9155 Fe  0  0  0  0  0  0  0  0  0  0  0  0
    2.3669    0.0829   -0.5638 N   0  0  0  0  0  0  0  0  0  0  0  0
   -2.3430   -0.0898   -0.4011 N   0  0  0  0  0  0  0  0  0  0  0  0
    0.4104    1.4697    1.0248 N   0  0  2  0  0  0  0  0  0  0  0  0
   -0.3596   -1.2875    1.2060 N   0  0  2  0  0  0  0  0  0  0  0  0
    3.2759   -0.8111   -0.8876 C   0  0  0  0  0  0  0  0  0  0  0  0
    2.7309    1.0872    0.2643 C   0  0  0  0  0  0  0  0  0  0  0  0
    4.5975   -0.8178   -0.4412 C   0  0  0  0  0  0  0  0  0  0  0  0
    4.0248    1.1796    0.7749 C   0  0  0  0  0  0  0  0  0  0  0  0
    4.9699    0.2133    0.4137 C   0  0  0  0  0  0  0  0  0  0  0  0
   -3.2846    0.7154   -0.8552 C   0  0  0  0  0  0  0  0  0  0  0  0
   -2.7028   -1.0890    0.4337 C   0  0  0  0  0  0  0  0  0  0  0  0
   -4.6402    0.6155   -0.5426 C   0  0  0  0  0  0  0  0  0  0  0  0
   -4.0291   -1.2732    0.8207 C   0  0  0  0  0  0  0  0  0  0  0  0
   -5.0098   -0.4121    0.3181 C   0  0  0  0  0  0  0  0  0  0  0  0
   -1.5936   -2.0131    0.8842 C   0  0  0  0  0  0  0  0  0  0  0  0
    1.6576    2.1048    0.5778 C   0  0  0  0  0  0  0  0  0  0  0  0
   -0.4814   -0.4031    2.3684 C   0  0  0  0  0  0  0  0  0  0  0  0
    0.5353    0.7442    2.2930 C   0  0  0  0  0  0  0  0  0  0  0  0
    0.7682   -2.2200    1.2981 C   0  0  0  0  0  0  0  0  0  0  0  0
   -0.6854    2.4465    1.0254 C   0  0  0  0  0  0  0  0  0  0  0  0
    5.2779   -1.5981   -0.7610 H   0  0  0  0  0  0  0  0  0  0  0  0
    5.9841    0.2632    0.7991 H   0  0  0  0  0  0  0  0  0  0  0  0
    4.2845    1.9923    1.4453 H   0  0  0  0  0  0  0  0  0  0  0  0
    2.0377    2.8411    1.3071 H   0  0  0  0  0  0  0  0  0  0  0  0
    1.4062    2.6097   -0.3600 H   0  0  0  0  0  0  0  0  0  0  0  0
   -5.3479    1.3198   -0.9633 H   0  0  0  0  0  0  0  0  0  0  0  0
   -6.0506   -0.5379    0.6021 H   0  0  0  0  0  0  0  0  0  0  0  0
   -4.2865   -2.0772    1.5024 H   0  0  0  0  0  0  0  0  0  0  0  0
   -1.9436   -2.6391    1.7240 H   0  0  0  0  0  0  0  0  0  0  0  0
   -1.3446   -2.6535    0.0302 H   0  0  0  0  0  0  0  0  0  0  0  0
    1.5478    0.3345    2.3559 H   0  0  0  0  0  0  0  0  0  0  0  0
    0.4087    1.4103    3.1644 H   0  0  0  0  0  0  0  0  0  0  0  0
   -0.3547   -0.9493    3.3200 H   0  0  0  0  0  0  0  0  0  0  0  0
   -1.4937    0.0120    2.3748 H   0  0  0  0  0  0  0  0  0  0  0  0
    0.6051   -2.9971    2.0660 H   0  0  0  0  0  0  0  0  0  0  0  0
    0.8945   -2.6659    0.3087 H   0  0  0  0  0  0  0  0  0  0  0  0
    1.6804   -1.6728    1.5482 H   0  0  0  0  0  0  0  0  0  0  0  0
   -0.8345    2.7694   -0.0062 H   0  0  0  0  0  0  0  0  0  0  0  0
   -0.4734    3.3080    1.6832 H   0  0  0  0  0  0  0  0  0  0  0  0
   -1.6038    1.9648    1.3694 H   0  0  0  0  0  0  0  0  0  0  0  0
   -2.8845    1.6967   -1.6630 F   0  0  0  0  0  0  0  0  0  0  0  0
    2.8841   -1.7905   -1.7149 F   0  0  0  0  0  0  0  0  0  0  0  0
   -0.1079   -1.7976   -1.6085 O   0  0  0  0  0  0  0  0  0  0  0  0
    0.6207   -1.9849   -2.2153 H   0  0  0  0  0  0  0  0  0  0  0  0
    0.0249    1.6524   -1.7290 F   0  0  0  0  0  0  0  0  0  0  0  0
  2  7  1  0  0  0  0
  2  1  9  0  0  0  0
  3 12  1  0  0  0  0
  3  1  9  0  0  0  0
  4 21  1  1  0  0  0
  4 19  1  0  0  0  0
  4  1  9  0  0  0  0
  5 20  1  1  0  0  0
  5 18  1  0  0  0  0
  5  1  9  0  0  0  0
  6  2  2  0  0  0  0
  6  8  1  0  0  0  0
  7 17  1  0  0  0  0
  7  9  2  0  0  0  0
  8 10  2  0  0  0  0
  9 24  1  0  0  0  0
 10  9  1  0  0  0  0
 10 23  1  0  0  0  0
 11 13  1  0  0  0  0
 11  3  2  0  0  0  0
 12 14  2  0  0  0  0
 12 16  1  0  0  0  0
 13 15  2  0  0  0  0
 14 29  1  0  0  0  0
 15 28  1  0  0  0  0
 15 14  1  0  0  0  0
 16  5  1  0  0  0  0
 16 30  1  0  0  0  0
 17  4  1  0  0  0  0
 17 25  1  0  0  0  0
 18 35  1  0  0  0  0
 18 34  1  0  0  0  0
 19 32  1  0  0  0  0
 19 18  1  0  0  0  0
 19 33  1  0  0  0  0
 20 38  1  0  0  0  0
 20 36  1  0  0  0  0
 21 41  1  0  0  0  0
 21 40  1  0  0  0  0
 22  8  1  0  0  0  0
 26 17  1  0  0  0  0
 27 13  1  0  0  0  0
 31 16  1  0  0  0  0
 37 20  1  0  0  0  0
 39 21  1  0  0  0  0
 42 11  1  0  0  0  0
 43  6  1  0  0  0  0
 44  1  1  0  0  0  0
 45 44  1  0  0  0  0
 46  1  1  0  0  0  0
M  END
$$$$
