
 OpenBabel02052520083D

 48 52  0  0  0  0  0  0  0  0999 V2000
   -0.0777   -0.2645   -0.6878 Fe  0  0  0  0  0  0  0  0  0  0  0  0
    2.2064   -0.5982   -0.1863 N   0  0  0  0  0  0  0  0  0  0  0  0
   -2.3654    0.0807   -0.2621 N   0  0  0  0  0  0  0  0  0  0  0  0
    0.3637    0.3512    1.6376 N   0  0  2  0  0  0  0  0  0  0  0  0
   -0.8369   -2.0888    0.5555 N   0  0  2  0  0  0  0  0  0  0  0  0
    3.0579   -1.2384   -0.9693 C   0  0  0  0  0  0  0  0  0  0  0  0
    2.7077    0.1451    0.8204 C   0  0  0  0  0  0  0  0  0  0  0  0
    4.4438   -1.1971   -0.8463 C   0  0  0  0  0  0  0  0  0  0  0  0
    4.0803    0.2449    1.0463 C   0  0  0  0  0  0  0  0  0  0  0  0
    4.9575   -0.4268    0.1930 C   0  0  0  0  0  0  0  0  0  0  0  0
   -3.0828    1.1846   -0.3703 C   0  0  0  0  0  0  0  0  0  0  0  0
   -3.0145   -1.0907   -0.0947 C   0  0  0  0  0  0  0  0  0  0  0  0
   -4.4754    1.2362   -0.3393 C   0  0  0  0  0  0  0  0  0  0  0  0
   -4.4054   -1.1522   -0.0292 C   0  0  0  0  0  0  0  0  0  0  0  0
   -5.1422    0.0281   -0.1651 C   0  0  0  0  0  0  0  0  0  0  0  0
   -2.1570   -2.3369   -0.0415 C   0  0  0  0  0  0  0  0  0  0  0  0
    1.7222    0.9135    1.6726 C   0  0  0  0  0  0  0  0  0  0  0  0
   -0.9043   -1.7648    1.9895 C   0  0  0  0  0  0  0  0  0  0  0  0
    0.2850   -0.9003    2.4161 C   0  0  0  0  0  0  0  0  0  0  0  0
    0.0761   -3.2050    0.2632 C   0  0  0  0  0  0  0  0  0  0  0  0
   -0.5959    1.3618    2.1153 C   0  0  0  0  0  0  0  0  0  0  0  0
    5.0676   -1.7485   -1.5395 H   0  0  0  0  0  0  0  0  0  0  0  0
    6.0311   -0.3552    0.3397 H   0  0  0  0  0  0  0  0  0  0  0  0
    4.4504    0.8489    1.8684 H   0  0  0  0  0  0  0  0  0  0  0  0
    2.1007    0.9752    2.7073 H   0  0  0  0  0  0  0  0  0  0  0  0
    1.6769    1.9394    1.2918 H   0  0  0  0  0  0  0  0  0  0  0  0
   -4.9857    2.1865   -0.4411 H   0  0  0  0  0  0  0  0  0  0  0  0
   -6.2273    0.0060   -0.1261 H   0  0  0  0  0  0  0  0  0  0  0  0
   -4.8998   -2.1066    0.1195 H   0  0  0  0  0  0  0  0  0  0  0  0
   -2.6997   -3.1469    0.4744 H   0  0  0  0  0  0  0  0  0  0  0  0
   -1.9671   -2.6343   -1.0785 H   0  0  0  0  0  0  0  0  0  0  0  0
    1.2117   -1.4558    2.2485 H   0  0  0  0  0  0  0  0  0  0  0  0
    0.2238   -0.6920    3.4978 H   0  0  0  0  0  0  0  0  0  0  0  0
   -0.9377   -2.6774    2.6077 H   0  0  0  0  0  0  0  0  0  0  0  0
   -1.8354   -1.2222    2.1744 H   0  0  0  0  0  0  0  0  0  0  0  0
   -0.3073   -4.1615    0.6570 H   0  0  0  0  0  0  0  0  0  0  0  0
    0.2081   -3.2536   -0.8192 H   0  0  0  0  0  0  0  0  0  0  0  0
    1.0505   -3.0024    0.7123 H   0  0  0  0  0  0  0  0  0  0  0  0
   -0.6043    2.2036    1.4210 H   0  0  0  0  0  0  0  0  0  0  0  0
   -0.3372    1.7191    3.1256 H   0  0  0  0  0  0  0  0  0  0  0  0
   -1.5982    0.9325    2.1421 H   0  0  0  0  0  0  0  0  0  0  0  0
   -2.4019    2.3217   -0.4971 F   0  0  0  0  0  0  0  0  0  0  0  0
    2.5221   -1.9816   -1.9398 F   0  0  0  0  0  0  0  0  0  0  0  0
   -0.3943   -1.3832   -2.1684 O   0  0  0  0  0  0  0  0  0  0  0  0
   -0.1474   -0.9932   -3.0194 H   0  0  0  0  0  0  0  0  0  0  0  0
    0.4514    1.6760   -1.1792 N   0  0  0  0  0  0  0  0  0  0  0  0
    0.7798    2.7738   -0.8746 C   0  0  0  0  0  0  0  0  0  0  0  0
    1.2429    4.2573   -0.3672 S   0  0  0  0  0  0  0  0  0  0  0  0
  2  7  1  0  0  0  0
  2  1  9  0  0  0  0
  3 12  1  0  0  0  0
  3  1  9  0  0  0  0
  4 17  1  0  0  0  0
  4 21  1  1  0  0  0
  4 19  1  0  0  0  0
  4  1  9  0  0  0  0
  5 20  1  6  0  0  0
  5 18  1  0  0  0  0
  5  1  9  0  0  0  0
  6  8  1  0  0  0  0
  6  2  2  0  0  0  0
  7  9  2  0  0  0  0
  7 17  1  0  0  0  0
  8 10  2  0  0  0  0
  9 24  1  0  0  0  0
 10 23  1  0  0  0  0
 10  9  1  0  0  0  0
 11 13  1  0  0  0  0
 11  3  2  0  0  0  0
 12 16  1  0  0  0  0
 12 14  2  0  0  0  0
 13 15  2  0  0  0  0
 14 29  1  0  0  0  0
 15 28  1  0  0  0  0
 15 14  1  0  0  0  0
 16 30  1  0  0  0  0
 16  5  1  0  0  0  0
 17 25  1  0  0  0  0
 18 35  1  0  0  0  0
 18 19  1  0  0  0  0
 18 34  1  0  0  0  0
 19 33  1  0  0  0  0
 20 36  1  0  0  0  0
 20 38  1  0  0  0  0
 21 41  1  0  0  0  0
 21 40  1  0  0  0  0
 22  8  1  0  0  0  0
 26 17  1  0  0  0  0
 27 13  1  0  0  0  0
 31 16  1  0  0  0  0
 32 19  1  0  0  0  0
 37 20  1  0  0  0  0
 39 21  1  0  0  0  0
 42 11  1  0  0  0  0
 43  6  1  0  0  0  0
 44  1  1  0  0  0  0
 45 44  1  0  0  0  0
 46 47  2  0  0  0  0
 46  1  1  0  0  0  0
 47 48  2  0  0  0  0
M  END
$$$$
