
 OpenBabel02052520083D

 50 54  0  0  0  0  0  0  0  0999 V2000
   -0.1838   -0.2537   -0.4798 Fe  0  0  0  0  0  0  0  0  0  0  0  0
   -2.5032    0.2103   -0.2234 N   0  0  0  0  0  0  0  0  0  0  0  0
    2.1084   -0.7338    0.0846 N   0  0  0  0  0  0  0  0  0  0  0  0
   -1.0741   -1.9858    0.7688 N   0  0  2  0  0  0  0  0  0  0  0  0
    0.2441    0.4196    1.7893 N   0  0  2  0  0  0  0  0  0  0  0  0
   -3.2043    1.3275   -0.5038 C   0  0  0  0  0  0  0  0  0  0  0  0
   -3.1711   -0.9477   -0.1085 C   0  0  0  0  0  0  0  0  0  0  0  0
   -4.5881    1.3343   -0.7079 C   0  0  0  0  0  0  0  0  0  0  0  0
   -4.5614   -1.0225   -0.2706 C   0  0  0  0  0  0  0  0  0  0  0  0
   -5.2750    0.1274   -0.5886 C   0  0  0  0  0  0  0  0  0  0  0  0
    2.9777   -1.3722   -0.7285 C   0  0  0  0  0  0  0  0  0  0  0  0
    2.6005    0.1355    0.9743 C   0  0  0  0  0  0  0  0  0  0  0  0
    4.3563   -1.1456   -0.7047 C   0  0  0  0  0  0  0  0  0  0  0  0
    3.9707    0.4174    1.0696 C   0  0  0  0  0  0  0  0  0  0  0  0
    4.8567   -0.2229    0.2137 C   0  0  0  0  0  0  0  0  0  0  0  0
    1.6330    0.8957    1.8578 C   0  0  0  0  0  0  0  0  0  0  0  0
   -2.3708   -2.2130    0.1231 C   0  0  0  0  0  0  0  0  0  0  0  0
    0.0478   -0.7876    2.6166 C   0  0  0  0  0  0  0  0  0  0  0  0
   -1.1864   -1.5808    2.1788 C   0  0  0  0  0  0  0  0  0  0  0  0
   -0.6635    1.5129    2.1797 C   0  0  0  0  0  0  0  0  0  0  0  0
   -0.2097   -3.1642    0.5826 C   0  0  0  0  0  0  0  0  0  0  0  0
   -5.0965    2.2631   -0.9406 H   0  0  0  0  0  0  0  0  0  0  0  0
   -6.3506    0.0908   -0.7326 H   0  0  0  0  0  0  0  0  0  0  0  0
   -5.0639   -1.9781   -0.1561 H   0  0  0  0  0  0  0  0  0  0  0  0
   -2.9843   -2.9457    0.6751 H   0  0  0  0  0  0  0  0  0  0  0  0
   -2.1474   -2.6167   -0.8701 H   0  0  0  0  0  0  0  0  0  0  0  0
    5.0049   -1.6801   -1.3897 H   0  0  0  0  0  0  0  0  0  0  0  0
    5.9198   -0.0073    0.2531 H   0  0  0  0  0  0  0  0  0  0  0  0
    4.3181    1.1475    1.7933 H   0  0  0  0  0  0  0  0  0  0  0  0
    2.0023    0.8855    2.8976 H   0  0  0  0  0  0  0  0  0  0  0  0
    1.6610    1.9386    1.5275 H   0  0  0  0  0  0  0  0  0  0  0  0
   -2.0791   -0.9587    2.2867 H   0  0  0  0  0  0  0  0  0  0  0  0
   -1.3192   -2.4536    2.8394 H   0  0  0  0  0  0  0  0  0  0  0  0
   -0.0370   -0.5256    3.6845 H   0  0  0  0  0  0  0  0  0  0  0  0
    0.9375   -1.4128    2.5062 H   0  0  0  0  0  0  0  0  0  0  0  0
   -0.4461    1.8787    3.1964 H   0  0  0  0  0  0  0  0  0  0  0  0
   -0.5574    2.3290    1.4634 H   0  0  0  0  0  0  0  0  0  0  0  0
   -1.6970    1.1652    2.1443 H   0  0  0  0  0  0  0  0  0  0  0  0
   -0.0577   -3.3028   -0.4886 H   0  0  0  0  0  0  0  0  0  0  0  0
   -0.6505   -4.0674    1.0367 H   0  0  0  0  0  0  0  0  0  0  0  0
    0.7645   -2.9760    1.0368 H   0  0  0  0  0  0  0  0  0  0  0  0
   -2.5035    2.5854   -0.5490 C   0  0  0  0  0  0  0  0  0  0  0  0
   -2.0400    3.6504   -0.5455 N   0  0  0  0  0  0  0  0  0  0  0  0
    2.4644   -2.3565   -1.6482 C   0  0  0  0  0  0  0  0  0  0  0  0
    2.1635   -3.1991   -2.3895 N   0  0  0  0  0  0  0  0  0  0  0  0
   -0.4802   -1.4067   -1.9274 O   0  0  0  0  0  0  0  0  0  0  0  0
   -0.0921   -1.1661   -2.7802 H   0  0  0  0  0  0  0  0  0  0  0  0
    0.5495    1.6023   -1.0211 N   0  0  0  0  0  0  0  0  0  0  0  0
    1.3895    2.4364   -0.9362 C   0  0  0  0  0  0  0  0  0  0  0  0
    2.5672    3.5462   -0.7270 S   0  0  0  0  0  0  0  0  0  0  0  0
  2  7  1  0  0  0  0
  2  1  9  0  0  0  0
  3 12  1  0  0  0  0
  3  1  9  0  0  0  0
  4 21  1  6  0  0  0
  4 19  1  0  0  0  0
  4  1  9  0  0  0  0
  5 16  1  0  0  0  0
  5 20  1  1  0  0  0
  5 18  1  0  0  0  0
  5  1  9  0  0  0  0
  6  2  2  0  0  0  0
  7 17  1  0  0  0  0
  8 10  2  0  0  0  0
  8  6  1  0  0  0  0
  9 24  1  0  0  0  0
  9  7  2  0  0  0  0
 10  9  1  0  0  0  0
 11 13  1  0  0  0  0
 11  3  2  0  0  0  0
 12 14  2  0  0  0  0
 12 16  1  0  0  0  0
 13 15  2  0  0  0  0
 14 29  1  0  0  0  0
 15 28  1  0  0  0  0
 15 14  1  0  0  0  0
 16 30  1  0  0  0  0
 17 25  1  0  0  0  0
 17  4  1  0  0  0  0
 18 34  1  0  0  0  0
 19 32  1  0  0  0  0
 19 18  1  0  0  0  0
 19 33  1  0  0  0  0
 20 36  1  0  0  0  0
 21 40  1  0  0  0  0
 21 41  1  0  0  0  0
 22  8  1  0  0  0  0
 23 10  1  0  0  0  0
 26 17  1  0  0  0  0
 27 13  1  0  0  0  0
 31 16  1  0  0  0  0
 35 18  1  0  0  0  0
 37 20  1  0  0  0  0
 38 20  1  0  0  0  0
 39 21  1  0  0  0  0
 42 43  3  0  0  0  0
 42  6  1  0  0  0  0
 44 11  1  0  0  0  0
 45 44  3  0  0  0  0
 46  1  1  0  0  0  0
 47 46  1  0  0  0  0
 48 49  2  0  0  0  0
 48  1  1  0  0  0  0
 49 50  2  0  0  0  0
M  END
$$$$
