
 OpenBabel02052520083D

 50 54  0  0  0  0  0  0  0  0999 V2000
   -0.0158   -0.2516   -0.6946 Fe  0  0  0  0  0  0  0  0  0  0  0  0
   -2.3395   -0.1364   -0.2369 N   0  0  0  0  0  0  0  0  0  0  0  0
    2.3331   -0.3906   -0.2292 N   0  0  0  0  0  0  0  0  0  0  0  0
   -0.5949   -2.1588    0.5495 N   0  0  2  0  0  0  0  0  0  0  0  0
    0.3936    0.3632    1.6299 N   0  0  2  0  0  0  0  0  0  0  0  0
   -3.1611    0.9130   -0.3322 C   0  0  0  0  0  0  0  0  0  0  0  0
   -2.8659   -1.3654   -0.0814 C   0  0  0  0  0  0  0  0  0  0  0  0
   -4.5603    0.7872   -0.3027 C   0  0  0  0  0  0  0  0  0  0  0  0
   -4.2411   -1.5821   -0.0144 C   0  0  0  0  0  0  0  0  0  0  0  0
   -5.0952   -0.4838   -0.1419 C   0  0  0  0  0  0  0  0  0  0  0  0
    3.2480   -0.9532   -1.0197 C   0  0  0  0  0  0  0  0  0  0  0  0
    2.7524    0.3429    0.8189 C   0  0  0  0  0  0  0  0  0  0  0  0
    4.6290   -0.8241   -0.8078 C   0  0  0  0  0  0  0  0  0  0  0  0
    4.1037    0.5126    1.1189 C   0  0  0  0  0  0  0  0  0  0  0  0
    5.0529   -0.0763    0.2832 C   0  0  0  0  0  0  0  0  0  0  0  0
    1.6943    1.0464    1.6418 C   0  0  0  0  0  0  0  0  0  0  0  0
   -1.8880   -2.5217   -0.0454 C   0  0  0  0  0  0  0  0  0  0  0  0
    0.4398   -0.8938    2.4012 C   0  0  0  0  0  0  0  0  0  0  0  0
   -0.6769   -1.8550    1.9850 C   0  0  0  0  0  0  0  0  0  0  0  0
   -0.6438    1.2777    2.1383 C   0  0  0  0  0  0  0  0  0  0  0  0
    0.4151   -3.1794    0.2366 C   0  0  0  0  0  0  0  0  0  0  0  0
   -5.1950    1.6640   -0.3926 H   0  0  0  0  0  0  0  0  0  0  0  0
   -6.1727   -0.6179   -0.1055 H   0  0  0  0  0  0  0  0  0  0  0  0
   -4.6304   -2.5853    0.1246 H   0  0  0  0  0  0  0  0  0  0  0  0
   -2.3474   -3.3878    0.4610 H   0  0  0  0  0  0  0  0  0  0  0  0
   -1.6737   -2.7890   -1.0858 H   0  0  0  0  0  0  0  0  0  0  0  0
    5.3393   -1.2983   -1.4796 H   0  0  0  0  0  0  0  0  0  0  0  0
    6.1141    0.0437    0.4816 H   0  0  0  0  0  0  0  0  0  0  0  0
    4.4003    1.1034    1.9793 H   0  0  0  0  0  0  0  0  0  0  0  0
    2.0625    1.1871    2.6726 H   0  0  0  0  0  0  0  0  0  0  0  0
    1.5477    2.0427    1.2124 H   0  0  0  0  0  0  0  0  0  0  0  0
   -1.6489   -1.3956    2.1831 H   0  0  0  0  0  0  0  0  0  0  0  0
   -0.6237   -2.7709    2.5976 H   0  0  0  0  0  0  0  0  0  0  0  0
    0.3781   -0.6964    3.4851 H   0  0  0  0  0  0  0  0  0  0  0  0
    1.4085   -1.3656    2.2159 H   0  0  0  0  0  0  0  0  0  0  0  0
   -0.4141    1.6136    3.1636 H   0  0  0  0  0  0  0  0  0  0  0  0
   -0.7197    2.1424    1.4778 H   0  0  0  0  0  0  0  0  0  0  0  0
   -1.6090    0.7703    2.1405 H   0  0  0  0  0  0  0  0  0  0  0  0
    0.5312   -3.2000   -0.8486 H   0  0  0  0  0  0  0  0  0  0  0  0
    0.1307   -4.1722    0.6263 H   0  0  0  0  0  0  0  0  0  0  0  0
    1.3736   -2.8886    0.6716 H   0  0  0  0  0  0  0  0  0  0  0  0
   -2.5307    2.0951   -0.4299 O   0  0  0  0  0  0  0  0  0  0  0  0
   -3.1564    2.8272   -0.5396 H   0  0  0  0  0  0  0  0  0  0  0  0
    2.7420   -1.6725   -2.0508 O   0  0  0  0  0  0  0  0  0  0  0  0
    3.4716   -2.0139   -2.5910 H   0  0  0  0  0  0  0  0  0  0  0  0
   -0.2526   -1.3806   -2.1843 O   0  0  0  0  0  0  0  0  0  0  0  0
    0.4030   -1.2302   -2.8797 H   0  0  0  0  0  0  0  0  0  0  0  0
    0.3859    1.7410   -1.1671 N   0  0  0  0  0  0  0  0  0  0  0  0
    0.3168    2.8856   -0.8700 C   0  0  0  0  0  0  0  0  0  0  0  0
    0.2130    4.4445   -0.3790 S   0  0  0  0  0  0  0  0  0  0  0  0
  2  7  1  0  0  0  0
  2  1  9  0  0  0  0
  3 12  1  0  0  0  0
  3  1  9  0  0  0  0
  4 21  1  6  0  0  0
  4 19  1  0  0  0  0
  4  1  9  0  0  0  0
  5 16  1  0  0  0  0
  5 20  1  1  0  0  0
  5 18  1  0  0  0  0
  5  1  9  0  0  0  0
  6  8  1  0  0  0  0
  6  2  2  0  0  0  0
  7 17  1  0  0  0  0
  7  9  2  0  0  0  0
  8 10  2  0  0  0  0
  9 24  1  0  0  0  0
 10 23  1  0  0  0  0
 10  9  1  0  0  0  0
 11 13  1  0  0  0  0
 11  3  2  0  0  0  0
 12 14  2  0  0  0  0
 12 16  1  0  0  0  0
 13 15  2  0  0  0  0
 14 29  1  0  0  0  0
 15 28  1  0  0  0  0
 15 14  1  0  0  0  0
 16 30  1  0  0  0  0
 17 25  1  0  0  0  0
 17  4  1  0  0  0  0
 18 34  1  0  0  0  0
 19 32  1  0  0  0  0
 19 18  1  0  0  0  0
 19 33  1  0  0  0  0
 20 38  1  0  0  0  0
 20 36  1  0  0  0  0
 21 40  1  0  0  0  0
 21 41  1  0  0  0  0
 22  8  1  0  0  0  0
 26 17  1  0  0  0  0
 27 13  1  0  0  0  0
 31 16  1  0  0  0  0
 35 18  1  0  0  0  0
 37 20  1  0  0  0  0
 39 21  1  0  0  0  0
 42  6  1  0  0  0  0
 43 42  1  0  0  0  0
 44 11  1  0  0  0  0
 45 44  1  0  0  0  0
 46  1  1  0  0  0  0
 47 46  1  0  0  0  0
 48 49  2  0  0  0  0
 48  1  1  0  0  0  0
 49 50  2  0  0  0  0
M  END
$$$$
