
 OpenBabel02052520083D

 48 52  0  0  0  0  0  0  0  0999 V2000
   -0.0091    0.1210   -0.3751 Fe  0  0  0  0  0  0  0  0  0  0  0  0
    2.4233    0.2496    0.1054 N   0  0  0  0  0  0  0  0  0  0  0  0
   -2.3183    0.1374   -0.0362 N   0  0  0  0  0  0  0  0  0  0  0  0
    0.4086    2.0344    0.8793 N   0  0  2  0  0  0  0  0  0  0  0  0
   -0.3890   -0.6011    1.8375 N   0  0  2  0  0  0  0  0  0  0  0  0
    3.3999   -0.6419   -0.1668 C   0  0  0  0  0  0  0  0  0  0  0  0
    2.7228    1.5529    0.0286 C   0  0  0  0  0  0  0  0  0  0  0  0
    4.6847   -0.2745   -0.5775 C   0  0  0  0  0  0  0  0  0  0  0  0
    3.9975    2.0078   -0.3398 C   0  0  0  0  0  0  0  0  0  0  0  0
    4.9812    1.0849   -0.6698 C   0  0  0  0  0  0  0  0  0  0  0  0
   -3.2556    0.6922   -0.8308 C   0  0  0  0  0  0  0  0  0  0  0  0
   -2.7270   -0.6460    0.9742 C   0  0  0  0  0  0  0  0  0  0  0  0
   -4.6285    0.4815   -0.6546 C   0  0  0  0  0  0  0  0  0  0  0  0
   -4.0808   -0.8869    1.2335 C   0  0  0  0  0  0  0  0  0  0  0  0
   -5.0442   -0.3238    0.4029 C   0  0  0  0  0  0  0  0  0  0  0  0
   -1.6572   -1.3440    1.7823 C   0  0  0  0  0  0  0  0  0  0  0  0
    1.6318    2.5744    0.2802 C   0  0  0  0  0  0  0  0  0  0  0  0
   -0.4900    0.6069    2.6828 C   0  0  0  0  0  0  0  0  0  0  0  0
    0.5577    1.6546    2.2920 C   0  0  0  0  0  0  0  0  0  0  0  0
    0.6824   -1.5036    2.2992 C   0  0  0  0  0  0  0  0  0  0  0  0
   -0.7023    2.9734    0.6533 C   0  0  0  0  0  0  0  0  0  0  0  0
    5.4221   -1.0383   -0.7971 H   0  0  0  0  0  0  0  0  0  0  0  0
    5.9685    1.4124   -0.9812 H   0  0  0  0  0  0  0  0  0  0  0  0
    4.1950    3.0750   -0.3799 H   0  0  0  0  0  0  0  0  0  0  0  0
    2.0415    3.4115    0.8727 H   0  0  0  0  0  0  0  0  0  0  0  0
    1.3461    2.9515   -0.7061 H   0  0  0  0  0  0  0  0  0  0  0  0
   -5.3359    0.9475   -1.3313 H   0  0  0  0  0  0  0  0  0  0  0  0
   -6.1009   -0.5048    0.5747 H   0  0  0  0  0  0  0  0  0  0  0  0
   -4.3630   -1.5184    2.0704 H   0  0  0  0  0  0  0  0  0  0  0  0
   -2.0344   -1.5773    2.7917 H   0  0  0  0  0  0  0  0  0  0  0  0
   -1.4454   -2.2873    1.2647 H   0  0  0  0  0  0  0  0  0  0  0  0
    1.5588    1.2387    2.4291 H   0  0  0  0  0  0  0  0  0  0  0  0
    0.4721    2.5296    2.9581 H   0  0  0  0  0  0  0  0  0  0  0  0
   -0.3846    0.3514    3.7495 H   0  0  0  0  0  0  0  0  0  0  0  0
   -1.4906    1.0280    2.5520 H   0  0  0  0  0  0  0  0  0  0  0  0
    0.4602   -1.9098    3.2993 H   0  0  0  0  0  0  0  0  0  0  0  0
    0.7907   -2.3157    1.5791 H   0  0  0  0  0  0  0  0  0  0  0  0
    1.6264   -0.9596    2.3367 H   0  0  0  0  0  0  0  0  0  0  0  0
   -0.8495    3.0632   -0.4243 H   0  0  0  0  0  0  0  0  0  0  0  0
   -0.5005    3.9612    1.1007 H   0  0  0  0  0  0  0  0  0  0  0  0
   -1.6193    2.5715    1.0880 H   0  0  0  0  0  0  0  0  0  0  0  0
    3.1426   -2.0415    0.0605 C   0  0  0  0  0  0  0  0  0  0  0  0
    3.0748   -3.1729    0.3152 N   0  0  0  0  0  0  0  0  0  0  0  0
   -2.8501    1.5586   -1.9098 C   0  0  0  0  0  0  0  0  0  0  0  0
   -2.6849    2.2935   -2.7943 N   0  0  0  0  0  0  0  0  0  0  0  0
    0.1649    1.2994   -1.8170 O   0  0  0  0  0  0  0  0  0  0  0  0
   -0.0237    0.9062   -2.6814 H   0  0  0  0  0  0  0  0  0  0  0  0
   -0.1888   -2.3032   -1.2705 Br  0  0  0  0  0  0  0  0  0  0  0  0
  2  1  9  0  0  0  0
  3 12  1  0  0  0  0
  3  1  9  0  0  0  0
  4 21  1  6  0  0  0
  4 19  1  0  0  0  0
  4  1  9  0  0  0  0
  5 20  1  1  0  0  0
  5 18  1  0  0  0  0
  5  1  9  0  0  0  0
  6 42  1  0  0  0  0
  6  2  2  0  0  0  0
  7  2  1  0  0  0  0
  7 17  1  0  0  0  0
  8  6  1  0  0  0  0
  9  7  2  0  0  0  0
 10  8  2  0  0  0  0
 10  9  1  0  0  0  0
 11 13  1  0  0  0  0
 11  3  2  0  0  0  0
 12 14  2  0  0  0  0
 12 16  1  0  0  0  0
 13 15  2  0  0  0  0
 14 29  1  0  0  0  0
 15 28  1  0  0  0  0
 15 14  1  0  0  0  0
 16  5  1  0  0  0  0
 16 30  1  0  0  0  0
 17 25  1  0  0  0  0
 17  4  1  0  0  0  0
 18 34  1  0  0  0  0
 19 32  1  0  0  0  0
 19 18  1  0  0  0  0
 19 33  1  0  0  0  0
 20 38  1  0  0  0  0
 20 36  1  0  0  0  0
 21 41  1  0  0  0  0
 21 40  1  0  0  0  0
 22  8  1  0  0  0  0
 23 10  1  0  0  0  0
 24  9  1  0  0  0  0
 26 17  1  0  0  0  0
 27 13  1  0  0  0  0
 31 16  1  0  0  0  0
 35 18  1  0  0  0  0
 37 20  1  0  0  0  0
 39 21  1  0  0  0  0
 42 43  3  0  0  0  0
 44 11  1  0  0  0  0
 45 44  3  0  0  0  0
 46  1  1  0  0  0  0
 47 46  1  0  0  0  0
 48  1  1  0  0  0  0
M  END
$$$$
