
 OpenBabel02052520083D

 48 52  0  0  0  0  0  0  0  0999 V2000
   -0.0085   -0.0228   -0.5455 Fe  0  0  0  0  0  0  0  0  0  0  0  0
    2.0476   -0.0387   -0.4247 N   0  0  0  0  0  0  0  0  0  0  0  0
   -2.0900   -0.0738   -0.4318 N   0  0  0  0  0  0  0  0  0  0  0  0
    0.4043    1.6733    1.0354 N   0  0  2  0  0  0  0  0  0  0  0  0
   -0.2631   -1.1091    1.3551 N   0  0  2  0  0  0  0  0  0  0  0  0
    2.8429   -1.0377   -0.8824 C   0  0  0  0  0  0  0  0  0  0  0  0
    2.6150    1.0646    0.1185 C   0  0  0  0  0  0  0  0  0  0  0  0
    4.2541   -0.9468   -0.7651 C   0  0  0  0  0  0  0  0  0  0  0  0
    3.9842    1.2014    0.2819 C   0  0  0  0  0  0  0  0  0  0  0  0
    4.8161    0.1676   -0.1794 C   0  0  0  0  0  0  0  0  0  0  0  0
   -3.0216    0.6771   -1.0427 C   0  0  0  0  0  0  0  0  0  0  0  0
   -2.5396   -1.0209    0.4378 C   0  0  0  0  0  0  0  0  0  0  0  0
   -4.3995    0.5281   -0.8327 C   0  0  0  0  0  0  0  0  0  0  0  0
   -3.8866   -1.2200    0.7165 C   0  0  0  0  0  0  0  0  0  0  0  0
   -4.8383   -0.4372    0.0613 C   0  0  0  0  0  0  0  0  0  0  0  0
   -1.4812   -1.8877    1.0651 C   0  0  0  0  0  0  0  0  0  0  0  0
    1.6631    2.1829    0.4822 C   0  0  0  0  0  0  0  0  0  0  0  0
   -0.4663   -0.1334    2.4489 C   0  0  0  0  0  0  0  0  0  0  0  0
    0.5297    1.0269    2.3430 C   0  0  0  0  0  0  0  0  0  0  0  0
    0.8534   -2.0290    1.6399 C   0  0  0  0  0  0  0  0  0  0  0  0
   -0.6656    2.6646    0.9574 C   0  0  0  0  0  0  0  0  0  0  0  0
    4.8477   -1.7716   -1.1426 H   0  0  0  0  0  0  0  0  0  0  0  0
    5.8955    0.2457   -0.0756 H   0  0  0  0  0  0  0  0  0  0  0  0
    4.3926    2.0966    0.7393 H   0  0  0  0  0  0  0  0  0  0  0  0
    2.1552    2.9056    1.1553 H   0  0  0  0  0  0  0  0  0  0  0  0
    1.3979    2.6837   -0.4537 H   0  0  0  0  0  0  0  0  0  0  0  0
   -5.0997    1.1673   -1.3634 H   0  0  0  0  0  0  0  0  0  0  0  0
   -5.8991   -0.5725    0.2489 H   0  0  0  0  0  0  0  0  0  0  0  0
   -4.1797   -1.9821    1.4304 H   0  0  0  0  0  0  0  0  0  0  0  0
   -1.8718   -2.3933    1.9626 H   0  0  0  0  0  0  0  0  0  0  0  0
   -1.1864   -2.6302    0.3188 H   0  0  0  0  0  0  0  0  0  0  0  0
    1.5506    0.6466    2.4393 H   0  0  0  0  0  0  0  0  0  0  0  0
    0.3687    1.7317    3.1764 H   0  0  0  0  0  0  0  0  0  0  0  0
   -0.3874   -0.6235    3.4324 H   0  0  0  0  0  0  0  0  0  0  0  0
   -1.4845    0.2571    2.3619 H   0  0  0  0  0  0  0  0  0  0  0  0
    0.6227   -2.6840    2.4951 H   0  0  0  0  0  0  0  0  0  0  0  0
    1.0365   -2.6228    0.7453 H   0  0  0  0  0  0  0  0  0  0  0  0
    1.7549   -1.4565    1.8593 H   0  0  0  0  0  0  0  0  0  0  0  0
   -0.8209    2.9036   -0.0973 H   0  0  0  0  0  0  0  0  0  0  0  0
   -0.4356    3.5813    1.5291 H   0  0  0  0  0  0  0  0  0  0  0  0
   -1.5944    2.2366    1.3457 H   0  0  0  0  0  0  0  0  0  0  0  0
    2.3258   -2.1130   -1.4178 O   0  0  0  0  0  0  0  0  0  0  0  0
    1.2381   -2.0860   -1.4500 H   0  0  0  0  0  0  0  0  0  0  0  0
   -2.5486    1.6240   -1.8877 O   0  0  0  0  0  0  0  0  0  0  0  0
   -3.2919    2.0741   -2.3180 H   0  0  0  0  0  0  0  0  0  0  0  0
    0.2177    1.2002   -1.9051 O   0  0  0  0  0  0  0  0  0  0  0  0
   -0.6137    1.3294   -2.3796 H   0  0  0  0  0  0  0  0  0  0  0  0
   -0.0426   -2.0110   -1.3256 F   0  0  0  0  0  0  0  0  0  0  0  0
  2  7  1  0  0  0  0
  2  1  9  0  0  0  0
  3 12  1  0  0  0  0
  3  1  9  0  0  0  0
  4 21  1  6  0  0  0
  4 19  1  0  0  0  0
  4  1  9  0  0  0  0
  5 20  1  1  0  0  0
  5 18  1  0  0  0  0
  5  1  9  0  0  0  0
  6  8  1  0  0  0  0
  6  2  2  0  0  0  0
  7  9  2  0  0  0  0
  7 17  1  0  0  0  0
  8 10  2  0  0  0  0
  9 24  1  0  0  0  0
 10 23  1  0  0  0  0
 10  9  1  0  0  0  0
 11 13  1  0  0  0  0
 11  3  2  0  0  0  0
 12 14  2  0  0  0  0
 12 16  1  0  0  0  0
 13 15  2  0  0  0  0
 14 29  1  0  0  0  0
 15 28  1  0  0  0  0
 15 14  1  0  0  0  0
 16  5  1  0  0  0  0
 16 30  1  0  0  0  0
 17  4  1  0  0  0  0
 17 25  1  0  0  0  0
 18 34  1  0  0  0  0
 19 32  1  0  0  0  0
 19 18  1  0  0  0  0
 19 33  1  0  0  0  0
 20 38  1  0  0  0  0
 20 36  1  0  0  0  0
 21 41  1  0  0  0  0
 21 40  1  0  0  0  0
 22  8  1  0  0  0  0
 26 17  1  0  0  0  0
 27 13  1  0  0  0  0
 31 16  1  0  0  0  0
 35 18  1  0  0  0  0
 37 20  1  0  0  0  0
 39 21  1  0  0  0  0
 42  6  1  0  0  0  0
 43 42  1  0  0  0  0
 44 11  1  0  0  0  0
 45 44  1  0  0  0  0
 46  1  1  0  0  0  0
 47 46  1  0  0  0  0
 48  1  1  0  0  0  0
M  END
$$$$
