
 OpenBabel02052520083D

 46 50  0  0  0  0  0  0  0  0999 V2000
    0.0118   -0.0819   -0.9478 Fe  0  0  0  0  0  0  0  0  0  0  0  0
   -2.2009    0.0091   -0.6307 N   0  0  0  0  0  0  0  0  0  0  0  0
    2.2151   -0.0505   -0.6431 N   0  0  0  0  0  0  0  0  0  0  0  0
   -0.4702   -1.3242    1.1169 N   0  0  2  0  0  0  0  0  0  0  0  0
    0.4652    1.4244    0.9784 N   0  0  2  0  0  0  0  0  0  0  0  0
   -2.9640    0.9688   -1.1667 C   0  0  0  0  0  0  0  0  0  0  0  0
   -2.7321   -0.8760    0.2290 C   0  0  0  0  0  0  0  0  0  0  0  0
   -4.3244    1.0774   -0.8798 C   0  0  0  0  0  0  0  0  0  0  0  0
   -4.0826   -0.8261    0.5783 C   0  0  0  0  0  0  0  0  0  0  0  0
   -4.8903    0.1609    0.0083 C   0  0  0  0  0  0  0  0  0  0  0  0
    3.0012   -1.0454   -1.0737 C   0  0  0  0  0  0  0  0  0  0  0  0
    2.7278    0.9253    0.1263 C   0  0  0  0  0  0  0  0  0  0  0  0
    4.3594   -1.1035   -0.7615 C   0  0  0  0  0  0  0  0  0  0  0  0
    4.0740    0.9328    0.4918 C   0  0  0  0  0  0  0  0  0  0  0  0
    4.9031   -0.0945    0.0348 C   0  0  0  0  0  0  0  0  0  0  0  0
    1.7427    2.0002    0.5331 C   0  0  0  0  0  0  0  0  0  0  0  0
   -1.7670   -1.9188    0.7544 C   0  0  0  0  0  0  0  0  0  0  0  0
    0.5571    0.6467    2.2173 C   0  0  0  0  0  0  0  0  0  0  0  0
   -0.5419   -0.4240    2.2745 C   0  0  0  0  0  0  0  0  0  0  0  0
   -0.5765    2.4546    1.0107 C   0  0  0  0  0  0  0  0  0  0  0  0
    0.5538   -2.3642    1.2630 C   0  0  0  0  0  0  0  0  0  0  0  0
   -4.9188    1.8641   -1.3338 H   0  0  0  0  0  0  0  0  0  0  0  0
   -5.9450    0.2187    0.2637 H   0  0  0  0  0  0  0  0  0  0  0  0
   -4.4883   -1.5437    1.2856 H   0  0  0  0  0  0  0  0  0  0  0  0
   -2.2204   -2.4809    1.5894 H   0  0  0  0  0  0  0  0  0  0  0  0
   -1.5501   -2.6058   -0.0711 H   0  0  0  0  0  0  0  0  0  0  0  0
    4.9696   -1.9228   -1.1286 H   0  0  0  0  0  0  0  0  0  0  0  0
    5.9555   -0.1099    0.3054 H   0  0  0  0  0  0  0  0  0  0  0  0
    4.4605    1.7267    1.1245 H   0  0  0  0  0  0  0  0  0  0  0  0
    2.1893    2.6710    1.2878 H   0  0  0  0  0  0  0  0  0  0  0  0
    1.5042    2.5794   -0.3648 H   0  0  0  0  0  0  0  0  0  0  0  0
   -1.5208    0.0643    2.2662 H   0  0  0  0  0  0  0  0  0  0  0  0
   -0.4702   -0.9780    3.2269 H   0  0  0  0  0  0  0  0  0  0  0  0
    0.4943    1.2888    3.1137 H   0  0  0  0  0  0  0  0  0  0  0  0
    1.5371    0.1608    2.2434 H   0  0  0  0  0  0  0  0  0  0  0  0
   -0.3239    3.2840    1.6949 H   0  0  0  0  0  0  0  0  0  0  0  0
   -0.7026    2.8129   -0.0120 H   0  0  0  0  0  0  0  0  0  0  0  0
   -1.5228    2.0133    1.3323 H   0  0  0  0  0  0  0  0  0  0  0  0
    0.6493   -2.8726    0.3016 H   0  0  0  0  0  0  0  0  0  0  0  0
    0.3047   -3.0833    2.0638 H   0  0  0  0  0  0  0  0  0  0  0  0
    1.5155   -1.9007    1.4964 H   0  0  0  0  0  0  0  0  0  0  0  0
   -2.4197    1.6493   -1.8159 H   0  0  0  0  0  0  0  0  0  0  0  0
    2.4748   -1.7962   -1.6582 H   0  0  0  0  0  0  0  0  0  0  0  0
    0.1015   -1.8797   -1.6854 O   0  0  0  0  0  0  0  0  0  0  0  0
   -0.2455   -1.9424   -2.5874 H   0  0  0  0  0  0  0  0  0  0  0  0
   -0.1281    1.6193   -1.7875 F   0  0  0  0  0  0  0  0  0  0  0  0
  2  7  1  0  0  0  0
  2  1  9  0  0  0  0
  3 12  1  0  0  0  0
  3  1  9  0  0  0  0
  4 21  1  1  0  0  0
  4 19  1  0  0  0  0
  4  1  9  0  0  0  0
  5 20  1  1  0  0  0
  5 18  1  0  0  0  0
  5  1  9  0  0  0  0
  6  8  1  0  0  0  0
  6  2  2  0  0  0  0
  7  9  2  0  0  0  0
  7 17  1  0  0  0  0
  8 10  2  0  0  0  0
  9 24  1  0  0  0  0
 10 23  1  0  0  0  0
 10  9  1  0  0  0  0
 11 13  1  0  0  0  0
 11  3  2  0  0  0  0
 12 14  2  0  0  0  0
 12 16  1  0  0  0  0
 13 15  2  0  0  0  0
 14 29  1  0  0  0  0
 15 28  1  0  0  0  0
 15 14  1  0  0  0  0
 16  5  1  0  0  0  0
 16 30  1  0  0  0  0
 17  4  1  0  0  0  0
 17 25  1  0  0  0  0
 18 35  1  0  0  0  0
 18 19  1  0  0  0  0
 18 34  1  0  0  0  0
 19 33  1  0  0  0  0
 20 38  1  0  0  0  0
 20 36  1  0  0  0  0
 21 41  1  0  0  0  0
 21 40  1  0  0  0  0
 22  8  1  0  0  0  0
 26 17  1  0  0  0  0
 27 13  1  0  0  0  0
 31 16  1  0  0  0  0
 32 19  1  0  0  0  0
 37 20  1  0  0  0  0
 39 21  1  0  0  0  0
 42  6  1  0  0  0  0
 43 11  1  0  0  0  0
 44  1  1  0  0  0  0
 45 44  1  0  0  0  0
 46  1  1  0  0  0  0
M  END
$$$$
