
 OpenBabel02052520083D

 46 50  0  0  0  0  0  0  0  0999 V2000
    0.0218   -0.0307   -0.5401 Fe  0  0  0  0  0  0  0  0  0  0  0  0
   -2.2738    0.2919   -0.1651 N   0  0  0  0  0  0  0  0  0  0  0  0
    2.3877    0.0120   -0.0357 N   0  0  0  0  0  0  0  0  0  0  0  0
   -0.3931   -0.0718    1.8178 N   0  0  2  0  0  0  0  0  0  0  0  0
    0.5944    2.1226    0.1710 N   0  0  2  0  0  0  0  0  0  0  0  0
   -3.1515    0.7126   -1.0588 C   0  0  0  0  0  0  0  0  0  0  0  0
   -2.7397   -0.1680    1.0135 C   0  0  0  0  0  0  0  0  0  0  0  0
   -4.5334    0.7100   -0.8817 C   0  0  0  0  0  0  0  0  0  0  0  0
   -4.1015   -0.1954    1.3067 C   0  0  0  0  0  0  0  0  0  0  0  0
   -5.0095    0.2404    0.3382 C   0  0  0  0  0  0  0  0  0  0  0  0
    3.2474   -0.9822    0.1036 C   0  0  0  0  0  0  0  0  0  0  0  0
    2.8785    1.2430   -0.2881 C   0  0  0  0  0  0  0  0  0  0  0  0
    4.6311   -0.8663   -0.0179 C   0  0  0  0  0  0  0  0  0  0  0  0
    4.2481    1.4791   -0.4014 C   0  0  0  0  0  0  0  0  0  0  0  0
    5.1324    0.4043   -0.2794 C   0  0  0  0  0  0  0  0  0  0  0  0
    1.8742    2.3525   -0.5111 C   0  0  0  0  0  0  0  0  0  0  0  0
   -1.7080   -0.7161    1.9705 C   0  0  0  0  0  0  0  0  0  0  0  0
    0.6958    2.1637    1.6377 C   0  0  0  0  0  0  0  0  0  0  0  0
   -0.4115    1.3280    2.2890 C   0  0  0  0  0  0  0  0  0  0  0  0
   -0.4295    3.0336   -0.3624 C   0  0  0  0  0  0  0  0  0  0  0  0
    0.6294   -0.8791    2.5061 C   0  0  0  0  0  0  0  0  0  0  0  0
   -5.1819    1.0675   -1.6725 H   0  0  0  0  0  0  0  0  0  0  0  0
   -6.0772    0.2193    0.5353 H   0  0  0  0  0  0  0  0  0  0  0  0
   -4.4416   -0.5621    2.2697 H   0  0  0  0  0  0  0  0  0  0  0  0
   -2.0750   -0.6483    3.0083 H   0  0  0  0  0  0  0  0  0  0  0  0
   -1.5704   -1.7739    1.7167 H   0  0  0  0  0  0  0  0  0  0  0  0
    5.2607   -1.7400    0.1006 H   0  0  0  0  0  0  0  0  0  0  0  0
    6.2030    0.5587   -0.3772 H   0  0  0  0  0  0  0  0  0  0  0  0
    4.6111    2.4840   -0.5919 H   0  0  0  0  0  0  0  0  0  0  0  0
    2.3201    3.3235   -0.2348 H   0  0  0  0  0  0  0  0  0  0  0  0
    1.6464    2.3537   -1.5825 H   0  0  0  0  0  0  0  0  0  0  0  0
   -1.3842    1.7551    2.0310 H   0  0  0  0  0  0  0  0  0  0  0  0
   -0.3187    1.3782    3.3866 H   0  0  0  0  0  0  0  0  0  0  0  0
    0.6482    3.1976    2.0191 H   0  0  0  0  0  0  0  0  0  0  0  0
    1.6713    1.7623    1.9237 H   0  0  0  0  0  0  0  0  0  0  0  0
   -0.1358    4.0910   -0.2490 H   0  0  0  0  0  0  0  0  0  0  0  0
   -0.5834    2.7858   -1.4144 H   0  0  0  0  0  0  0  0  0  0  0  0
   -1.3721    2.8724    0.1641 H   0  0  0  0  0  0  0  0  0  0  0  0
    0.7210   -1.8362    1.9885 H   0  0  0  0  0  0  0  0  0  0  0  0
    0.3696   -1.0387    3.5655 H   0  0  0  0  0  0  0  0  0  0  0  0
    1.5931   -0.3721    2.4518 H   0  0  0  0  0  0  0  0  0  0  0  0
    2.7335   -2.1715    0.4093 F   0  0  0  0  0  0  0  0  0  0  0  0
   -2.6530    1.1834   -2.2020 F   0  0  0  0  0  0  0  0  0  0  0  0
    0.3029    0.6561   -2.2628 O   0  0  0  0  0  0  0  0  0  0  0  0
    0.1546   -0.0156   -2.9450 H   0  0  0  0  0  0  0  0  0  0  0  0
   -0.4427   -2.6018   -0.7005 Br  0  0  0  0  0  0  0  0  0  0  0  0
  2  7  1  0  0  0  0
  2  1  9  0  0  0  0
  3 11  1  0  0  0  0
  3  1  9  0  0  0  0
  4 17  1  0  0  0  0
  4 19  1  0  0  0  0
  4 21  1  1  0  0  0
  4  1  9  0  0  0  0
  5 20  1  6  0  0  0
  5 18  1  0  0  0  0
  5  1  9  0  0  0  0
  6  8  1  0  0  0  0
  6  2  2  0  0  0  0
  7  9  2  0  0  0  0
  7 17  1  0  0  0  0
  8 10  2  0  0  0  0
  9 24  1  0  0  0  0
 10 23  1  0  0  0  0
 10  9  1  0  0  0  0
 11 42  1  0  0  0  0
 12  3  2  0  0  0  0
 13 27  1  0  0  0  0
 13 11  2  0  0  0  0
 14 12  1  0  0  0  0
 14 15  2  0  0  0  0
 15 13  1  0  0  0  0
 16 12  1  0  0  0  0
 16 30  1  0  0  0  0
 16  5  1  0  0  0  0
 17 25  1  0  0  0  0
 18 35  1  0  0  0  0
 18 34  1  0  0  0  0
 18 19  1  0  0  0  0
 19 33  1  0  0  0  0
 20 36  1  0  0  0  0
 20 38  1  0  0  0  0
 21 40  1  0  0  0  0
 22  8  1  0  0  0  0
 26 17  1  0  0  0  0
 28 15  1  0  0  0  0
 29 14  1  0  0  0  0
 31 16  1  0  0  0  0
 32 19  1  0  0  0  0
 37 20  1  0  0  0  0
 39 21  1  0  0  0  0
 41 21  1  0  0  0  0
 43  6  1  0  0  0  0
 44  1  1  0  0  0  0
 45 44  1  0  0  0  0
 46  1  1  0  0  0  0
M  END
$$$$
