
 OpenBabel02052520083D

 52 56  0  0  0  0  0  0  0  0999 V2000
   -0.0003    0.1472   -0.6541 Fe  0  0  0  0  0  0  0  0  0  0  0  0
   -2.4612    0.0772   -0.1904 N   0  0  0  0  0  0  0  0  0  0  0  0
    2.4018    0.0167   -0.2962 N   0  0  0  0  0  0  0  0  0  0  0  0
   -0.4618   -1.7494    0.6375 N   0  0  2  0  0  0  0  0  0  0  0  0
    0.4486    0.8348    1.5621 N   0  0  2  0  0  0  0  0  0  0  0  0
   -3.4268    1.0103   -0.3265 C   0  0  0  0  0  0  0  0  0  0  0  0
   -2.8196   -1.2029    0.0338 C   0  0  0  0  0  0  0  0  0  0  0  0
   -4.7861    0.6727   -0.2451 C   0  0  0  0  0  0  0  0  0  0  0  0
   -4.1519   -1.6002    0.1550 C   0  0  0  0  0  0  0  0  0  0  0  0
   -5.1537   -0.6440    0.0041 C   0  0  0  0  0  0  0  0  0  0  0  0
    3.3138   -0.6504   -1.0297 C   0  0  0  0  0  0  0  0  0  0  0  0
    2.8058    0.6945    0.7963 C   0  0  0  0  0  0  0  0  0  0  0  0
    4.6661   -0.6815   -0.6510 C   0  0  0  0  0  0  0  0  0  0  0  0
    4.1295    0.6993    1.2312 C   0  0  0  0  0  0  0  0  0  0  0  0
    5.0781   -0.0069    0.4908 C   0  0  0  0  0  0  0  0  0  0  0  0
    1.7546    1.5160    1.5071 C   0  0  0  0  0  0  0  0  0  0  0  0
   -1.7233   -2.2447    0.0717 C   0  0  0  0  0  0  0  0  0  0  0  0
    0.4983   -0.3556    2.4342 C   0  0  0  0  0  0  0  0  0  0  0  0
   -0.5776   -1.3736    2.0542 C   0  0  0  0  0  0  0  0  0  0  0  0
   -0.5915    1.7875    1.9814 C   0  0  0  0  0  0  0  0  0  0  0  0
    0.6096   -2.7249    0.3946 C   0  0  0  0  0  0  0  0  0  0  0  0
   -5.5355    1.4482   -0.3707 H   0  0  0  0  0  0  0  0  0  0  0  0
   -6.2013   -0.9225    0.0811 H   0  0  0  0  0  0  0  0  0  0  0  0
   -4.3917   -2.6409    0.3514 H   0  0  0  0  0  0  0  0  0  0  0  0
   -2.0792   -3.1436    0.6044 H   0  0  0  0  0  0  0  0  0  0  0  0
   -1.5013   -2.5069   -0.9680 H   0  0  0  0  0  0  0  0  0  0  0  0
    5.3749   -1.2345   -1.2602 H   0  0  0  0  0  0  0  0  0  0  0  0
    6.1192   -0.0269    0.8018 H   0  0  0  0  0  0  0  0  0  0  0  0
    4.4063    1.2468    2.1271 H   0  0  0  0  0  0  0  0  0  0  0  0
    2.1016    1.7917    2.5169 H   0  0  0  0  0  0  0  0  0  0  0  0
    1.6064    2.4313    0.9248 H   0  0  0  0  0  0  0  0  0  0  0  0
   -1.5670   -0.9357    2.2088 H   0  0  0  0  0  0  0  0  0  0  0  0
   -0.5060   -2.2542    2.7152 H   0  0  0  0  0  0  0  0  0  0  0  0
    0.3917   -0.0741    3.4947 H   0  0  0  0  0  0  0  0  0  0  0  0
    1.4859   -0.8103    2.3223 H   0  0  0  0  0  0  0  0  0  0  0  0
   -0.3799    2.2057    2.9797 H   0  0  0  0  0  0  0  0  0  0  0  0
   -0.6346    2.5890    1.2414 H   0  0  0  0  0  0  0  0  0  0  0  0
   -1.5609    1.2874    1.9989 H   0  0  0  0  0  0  0  0  0  0  0  0
    0.7021   -2.8629   -0.6838 H   0  0  0  0  0  0  0  0  0  0  0  0
    0.4009   -3.6925    0.8830 H   0  0  0  0  0  0  0  0  0  0  0  0
    1.5585   -2.3347    0.7658 H   0  0  0  0  0  0  0  0  0  0  0  0
   -3.0108    2.4382   -0.5450 C   0  0  0  0  0  0  0  0  0  0  0  0
   -3.7617    2.9768   -1.1323 H   0  0  0  0  0  0  0  0  0  0  0  0
   -2.9168    2.9566    0.4187 H   0  0  0  0  0  0  0  0  0  0  0  0
   -2.0400    2.4955   -1.0437 H   0  0  0  0  0  0  0  0  0  0  0  0
    2.8586   -1.3367   -2.2892 C   0  0  0  0  0  0  0  0  0  0  0  0
    3.1897   -0.7529   -3.1587 H   0  0  0  0  0  0  0  0  0  0  0  0
    3.3098   -2.3325   -2.3762 H   0  0  0  0  0  0  0  0  0  0  0  0
    1.7653   -1.4043   -2.3278 H   0  0  0  0  0  0  0  0  0  0  0  0
   -0.2432   -1.0225   -2.1344 O   0  0  0  0  0  0  0  0  0  0  0  0
   -0.3212   -0.5164   -2.9580 H   0  0  0  0  0  0  0  0  0  0  0  0
    0.3886    2.4196   -1.4396 Cl  0  0  0  0  0  0  0  0  0  0  0  0
  2  7  1  0  0  0  0
  2  1  9  0  0  0  0
  3 12  1  0  0  0  0
  3  1  9  0  0  0  0
  4 21  1  6  0  0  0
  4 19  1  0  0  0  0
  4  1  9  0  0  0  0
  5 20  1  1  0  0  0
  5 18  1  0  0  0  0
  5  1  9  0  0  0  0
  6  8  1  0  0  0  0
  6  2  2  0  0  0  0
  7 17  1  0  0  0  0
  7  9  2  0  0  0  0
  8 10  2  0  0  0  0
  9 24  1  0  0  0  0
 10 23  1  0  0  0  0
 10  9  1  0  0  0  0
 11 13  1  0  0  0  0
 11  3  2  0  0  0  0
 12 14  2  0  0  0  0
 12 16  1  0  0  0  0
 13 15  2  0  0  0  0
 14 29  1  0  0  0  0
 15 28  1  0  0  0  0
 15 14  1  0  0  0  0
 16  5  1  0  0  0  0
 16 30  1  0  0  0  0
 17 25  1  0  0  0  0
 17  4  1  0  0  0  0
 18 34  1  0  0  0  0
 19 32  1  0  0  0  0
 19 18  1  0  0  0  0
 19 33  1  0  0  0  0
 20 38  1  0  0  0  0
 20 36  1  0  0  0  0
 21 41  1  0  0  0  0
 21 40  1  0  0  0  0
 22  8  1  0  0  0  0
 26 17  1  0  0  0  0
 27 13  1  0  0  0  0
 31 16  1  0  0  0  0
 35 18  1  0  0  0  0
 37 20  1  0  0  0  0
 39 21  1  0  0  0  0
 42  6  1  0  0  0  0
 42 44  1  0  0  0  0
 43 42  1  0  0  0  0
 45 42  1  0  0  0  0
 46 11  1  0  0  0  0
 47 46  1  0  0  0  0
 48 46  1  0  0  0  0
 49 46  1  0  0  0  0
 50  1  1  0  0  0  0
 51 50  1  0  0  0  0
 52  1  1  0  0  0  0
M  END
$$$$
