G:\CZW\XYZ\0151-6FeH3BueaNCSK.xyz
 OpenBabel02052522413D

 78 80  0  0  1  0  0  0  0  0999 V2000
    0.3864   -1.0115   -0.3605 Fe  0  0  0  0  0  0  0  0  0  0  0  0
   -1.3696   -1.9956   -0.1996 N   0  0  0  0  0  0  0  0  0  0  0  0
   -2.6264   -1.4641   -0.4320 C   0  0  1  0  0  3  0  0  0  0  0  0
   -2.7952   -0.8621   -1.6411 N   0  0  0  0  0  0  0  0  0  0  0  0
   -3.9244    0.0203   -2.0068 C   0  0  0  0  0  0  0  0  0  0  0  0
   -3.6358    0.5295   -3.4278 C   0  0  0  0  0  0  0  0  0  0  0  0
    1.0544   -3.0703    0.6654 N   0  0  2  0  0  4  0  0  0  0  0  0
    1.4042   -2.6908    2.0487 C   0  0  0  0  0  0  0  0  0  0  0  0
    1.9431   -1.2590    2.0638 C   0  0  0  0  0  0  0  0  0  0  0  0
    0.9772   -0.3433    1.4487 N   0  0  0  0  0  0  0  0  0  0  0  0
    0.3578    0.5236    2.3003 C   0  0  0  0  0  0  0  0  0  0  0  0
   -0.4803    1.4697    1.6678 N   0  0  0  0  0  0  0  0  0  0  0  0
   -0.6006    2.8543    2.2154 C   0  0  0  0  0  0  0  0  0  0  0  0
   -1.4417    2.8626    3.5045 C   0  0  0  0  0  0  0  0  0  0  0  0
    1.9069   -1.5516   -1.4669 N   0  0  0  0  0  0  0  0  0  0  0  0
    3.0913   -0.8155   -1.3039 C   0  0  0  0  0  0  0  0  0  0  0  0
    2.9057    0.5296   -1.4638 N   0  0  0  0  0  0  0  0  0  0  0  0
    3.8309    1.5798   -0.9999 C   0  0  0  0  0  0  0  0  0  0  0  0
    4.1338    1.3915    0.4992 C   0  0  0  0  0  0  0  0  0  0  0  0
    2.2096   -3.5551   -0.1218 C   0  0  0  0  0  0  0  0  0  0  0  0
    2.1048   -2.9951   -1.5458 C   0  0  0  0  0  0  0  0  0  0  0  0
   -0.1246   -3.9401    0.5541 C   0  0  0  0  0  0  0  0  0  0  0  0
   -1.3933   -3.1191    0.7363 C   0  0  0  0  0  0  0  0  0  0  0  0
    4.1810   -1.3313   -1.0229 O   0  0  0  0  0  0  0  0  0  0  0  0
    0.4173    0.4778    3.5449 O   0  0  0  0  0  0  0  0  0  0  0  0
   -3.5579   -1.5450    0.4090 O   0  0  0  0  0  0  0  0  0  0  0  0
    0.7927    3.4482    2.4950 C   0  0  0  0  0  0  0  0  0  0  0  0
   -1.3178    3.6784    1.1354 C   0  0  0  0  0  0  0  0  0  0  0  0
   -5.2369   -0.7835   -2.0059 C   0  0  0  0  0  0  0  0  0  0  0  0
   -4.0182    1.2126   -1.0337 C   0  0  0  0  0  0  0  0  0  0  0  0
    3.1048    2.9159   -1.2183 C   0  0  0  0  0  0  0  0  0  0  0  0
    5.1295    1.5379   -1.8245 C   0  0  0  0  0  0  0  0  0  0  0  0
   -2.5227   -0.3178    2.4848 K   0  0  0  0  0  0  0  0  0  0  0  0
   -0.1325   -4.3650   -0.4537 H   0  0  0  0  0  0  0  0  0  0  0  0
    0.4994   -2.7299    2.6628 H   0  0  0  0  0  0  0  0  0  0  0  0
    2.1285   -3.3995    2.4793 H   0  0  0  0  0  0  0  0  0  0  0  0
    2.1580   -0.9539    3.0915 H   0  0  0  0  0  0  0  0  0  0  0  0
    2.8731   -1.2106    1.4864 H   0  0  0  0  0  0  0  0  0  0  0  0
    3.1273   -3.1587    0.3144 H   0  0  0  0  0  0  0  0  0  0  0  0
    2.2628   -4.6546   -0.1043 H   0  0  0  0  0  0  0  0  0  0  0  0
   -1.4542   -2.7983    1.7935 H   0  0  0  0  0  0  0  0  0  0  0  0
   -2.2744   -3.7504    0.5708 H   0  0  0  0  0  0  0  0  0  0  0  0
    3.0138   -3.2403   -2.1052 H   0  0  0  0  0  0  0  0  0  0  0  0
    1.2435   -3.4273   -2.0687 H   0  0  0  0  0  0  0  0  0  0  0  0
    1.9754    0.8176   -1.7317 H   0  0  0  0  0  0  0  0  0  0  0  0
   -1.9501   -0.7604   -2.1870 H   0  0  0  0  0  0  0  0  0  0  0  0
   -0.3068    1.4913    0.6655 H   0  0  0  0  0  0  0  0  0  0  0  0
    1.3971    3.4476    1.5811 H   0  0  0  0  0  0  0  0  0  0  0  0
    0.7093    4.4826    2.8476 H   0  0  0  0  0  0  0  0  0  0  0  0
   -5.1708   -1.6157   -2.7154 H   0  0  0  0  0  0  0  0  0  0  0  0
   -1.5265    3.8842    3.8909 H   0  0  0  0  0  0  0  0  0  0  0  0
   -5.4373   -1.1897   -1.0130 H   0  0  0  0  0  0  0  0  0  0  0  0
   -4.8121    1.9004   -1.3457 H   0  0  0  0  0  0  0  0  0  0  0  0
   -4.2554    0.8549   -0.0268 H   0  0  0  0  0  0  0  0  0  0  0  0
   -2.2944    3.2425    0.8915 H   0  0  0  0  0  0  0  0  0  0  0  0
   -2.7227    1.1330   -3.4630 H   0  0  0  0  0  0  0  0  0  0  0  0
   -3.5324   -0.3105   -4.1248 H   0  0  0  0  0  0  0  0  0  0  0  0
   -4.4629    1.1577   -3.7736 H   0  0  0  0  0  0  0  0  0  0  0  0
   -0.7354    3.7302    0.2091 H   0  0  0  0  0  0  0  0  0  0  0  0
   -1.4788    4.7024    1.4885 H   0  0  0  0  0  0  0  0  0  0  0  0
    2.8475    3.0618   -2.2735 H   0  0  0  0  0  0  0  0  0  0  0  0
    2.1757    2.9575   -0.6372 H   0  0  0  0  0  0  0  0  0  0  0  0
    3.7425    3.7477   -0.9021 H   0  0  0  0  0  0  0  0  0  0  0  0
    4.9110    1.6979   -2.8863 H   0  0  0  0  0  0  0  0  0  0  0  0
    5.8186    2.3224   -1.4893 H   0  0  0  0  0  0  0  0  0  0  0  0
    5.6121    0.5648   -1.7103 H   0  0  0  0  0  0  0  0  0  0  0  0
    4.7732    2.2039    0.8634 H   0  0  0  0  0  0  0  0  0  0  0  0
    3.2017    1.3905    1.0749 H   0  0  0  0  0  0  0  0  0  0  0  0
   -0.9832    2.2318    4.2682 H   0  0  0  0  0  0  0  0  0  0  0  0
   -2.4673    2.5160    3.3030 H   0  0  0  0  0  0  0  0  0  0  0  0
   -0.0817   -4.7734    1.2746 H   0  0  0  0  0  0  0  0  0  0  0  0
    4.6482    0.4418    0.6653 H   0  0  0  0  0  0  0  0  0  0  0  0
   -3.0742    1.7660   -1.0103 H   0  0  0  0  0  0  0  0  0  0  0  0
   -6.0704   -0.1381   -2.3071 H   0  0  0  0  0  0  0  0  0  0  0  0
    1.3129    2.8609    3.2567 H   0  0  0  0  0  0  0  0  0  0  0  0
   -0.2165    0.7158   -1.2896 N   0  0  0  0  0  0  0  0  0  0  0  0
   -0.3863    1.7152   -1.9210 C   0  0  0  0  0  0  0  0  0  0  0  0
   -0.6189    3.0790   -2.7470 S   0  0  0  0  0  0  0  0  0  0  0  0
  1  2  1  0  0  0  0
  1  7  1  0  0  0  0
  1 10  1  0  0  0  0
  2 23  1  0  0  0  0
  3  2  1  0  0  0  0
  3 26  1  6  0  0  0
  4  3  1  0  0  0  0
  5 29  1  0  0  0  0
  5  4  1  0  0  0  0
  5 30  1  0  0  0  0
  6  5  1  0  0  0  0
  7 20  1  6  0  0  0
  7  8  1  0  0  0  0
  8  9  1  0  0  0  0
  8 36  1  0  0  0  0
  8 35  1  0  0  0  0
  9 37  1  0  0  0  0
 10  9  1  0  0  0  0
 10 11  1  0  0  0  0
 11 25  2  0  0  0  0
 12 13  1  0  0  0  0
 12 11  1  0  0  0  0
 13 27  1  0  0  0  0
 13 14  1  0  0  0  0
 14 51  1  0  0  0  0
 14 69  1  0  0  0  0
 15 16  1  0  0  0  0
 15  1  1  0  0  0  0
 16 24  2  0  0  0  0
 17 16  1  0  0  0  0
 17 18  1  0  0  0  0
 18 19  1  0  0  0  0
 19 72  1  0  0  0  0
 19 67  1  0  0  0  0
 19 68  1  0  0  0  0
 20 40  1  0  0  0  0
 20 39  1  0  0  0  0
 21 15  1  0  0  0  0
 21 20  1  0  0  0  0
 22  7  1  0  0  0  0
 22 23  1  0  0  0  0
 22 71  1  0  0  0  0
 23 41  1  0  0  0  0
 26 33  1  0  0  0  0
 27 49  1  0  0  0  0
 27 75  1  0  0  0  0
 28 60  1  0  0  0  0
 28 13  1  0  0  0  0
 29 52  1  0  0  0  0
 30 73  1  0  0  0  0
 30 54  1  0  0  0  0
 31 18  1  0  0  0  0
 31 63  1  0  0  0  0
 31 62  1  0  0  0  0
 32 66  1  0  0  0  0
 32 65  1  0  0  0  0
 32 18  1  0  0  0  0
 34 22  1  0  0  0  0
 38  9  1  0  0  0  0
 42 23  1  0  0  0  0
 43 21  1  0  0  0  0
 44 21  1  0  0  0  0
 45 17  1  0  0  0  0
 46  4  1  0  0  0  0
 47 12  1  0  0  0  0
 48 27  1  0  0  0  0
 50 29  1  0  0  0  0
 53 30  1  0  0  0  0
 55 28  1  0  0  0  0
 56  6  1  0  0  0  0
 57  6  1  0  0  0  0
 58  6  1  0  0  0  0
 59 28  1  0  0  0  0
 61 31  1  0  0  0  0
 64 32  1  0  0  0  0
 70 14  1  0  0  0  0
 74 29  1  0  0  0  0
 76  1  1  0  0  0  0
 77 76  2  0  0  0  0
 78 77  2  0  0  0  0
M  END
$$$$
