G:\CZW\XYZ\0151-6FeH1CYPNCSK.xyz
 OpenBabel02052522373D

 70 74  0  0  1  0  0  0  0  0999 V2000
    0.6790   -0.5759   -0.1547 Fe  0  0  0  0  0  0  0  0  0  0  0  0
    0.8676   -2.7964   -0.4186 N   0  0  2  0  0  4  0  0  0  0  0  0
    2.2117   -3.0890    0.0953 C   0  0  0  0  0  0  0  0  0  0  0  0
    0.7435   -2.9225   -1.8839 C   0  0  0  0  0  0  0  0  0  0  0  0
   -0.2130   -3.4267    0.3473 C   0  0  0  0  0  0  0  0  0  0  0  0
    1.6268   -2.4447   -2.3135 H   0  0  0  0  0  0  0  0  0  0  0  0
   -1.0296   -3.7122   -0.3200 H   0  0  0  0  0  0  0  0  0  0  0  0
    0.1200   -4.3525    0.8348 H   0  0  0  0  0  0  0  0  0  0  0  0
    2.1494   -3.1357    1.1871 H   0  0  0  0  0  0  0  0  0  0  0  0
    2.5992   -4.0485   -0.2719 H   0  0  0  0  0  0  0  0  0  0  0  0
   -0.5221   -2.2048   -2.3592 C   0  0  0  0  0  0  0  0  0  0  0  0
   -1.4070   -2.8390   -2.2224 H   0  0  0  0  0  0  0  0  0  0  0  0
   -0.4482   -2.0333   -3.4415 H   0  0  0  0  0  0  0  0  0  0  0  0
    2.6033   -0.7742   -0.5308 N   0  0  0  0  0  0  0  0  0  0  0  0
   -0.1230   -1.3272    1.5744 N   0  0  1  0  0  0  0  0  0  0  0  0
   -0.4325   -0.5518    2.7807 C   0  0  0  0  0  0  0  0  0  0  0  0
   -0.6889   -0.9377   -1.6389 N   0  0  0  0  0  0  0  0  0  0  0  0
   -1.9554   -0.4330   -1.7277 C   0  0  0  0  0  0  0  0  0  0  0  0
   -2.9188   -1.0400   -2.2490 O   0  0  0  0  0  0  0  0  0  0  0  0
   -3.4674   -1.3846    0.5944 K   0  0  0  0  0  0  0  0  0  0  0  0
   -2.1744    0.7824   -1.0674 N   0  0  0  0  0  0  0  0  0  0  0  0
   -1.3020    1.2315   -0.8026 H   0  0  0  0  0  0  0  0  0  0  0  0
   -2.9928    2.0252   -3.0649 C   0  0  0  0  0  0  0  0  0  0  0  0
   -1.9752    2.3768   -3.2702 H   0  0  0  0  0  0  0  0  0  0  0  0
   -3.1653    1.1043   -3.6288 H   0  0  0  0  0  0  0  0  0  0  0  0
   -4.6084    1.2938   -1.2726 C   0  0  0  0  0  0  0  0  0  0  0  0
   -5.3307    2.0454   -1.6089 H   0  0  0  0  0  0  0  0  0  0  0  0
   -4.8115    0.3567   -1.7957 H   0  0  0  0  0  0  0  0  0  0  0  0
   -3.1732    1.7732   -1.5567 C   0  0  0  0  0  0  0  0  0  0  0  0
   -2.9851    2.8891    0.3122 H   0  0  0  0  0  0  0  0  0  0  0  0
   -1.9049    3.4616   -0.9676 H   0  0  0  0  0  0  0  0  0  0  0  0
   -3.6343    3.8338   -1.0450 H   0  0  0  0  0  0  0  0  0  0  0  0
    0.7352   -3.9777   -2.1974 H   0  0  0  0  0  0  0  0  0  0  0  0
   -4.7642    1.1651   -0.1905 H   0  0  0  0  0  0  0  0  0  0  0  0
   -3.6957    2.7889   -3.4170 H   0  0  0  0  0  0  0  0  0  0  0  0
   -2.9062    3.0646   -0.7673 C   0  0  0  0  0  0  0  0  0  0  0  0
    3.2004   -1.9771   -0.2681 C   0  0  0  0  0  0  0  0  0  0  0  0
    4.4054   -2.2203   -0.2849 O   0  0  0  0  0  0  0  0  0  0  0  0
    3.4961    0.2997   -0.9741 C   0  0  0  0  0  0  0  0  0  0  0  0
    2.9014    1.1856   -2.1050 C   0  0  0  0  0  0  0  0  0  0  0  0
    1.8082    1.1394   -2.0999 H   0  0  0  0  0  0  0  0  0  0  0  0
    3.2290    0.8193   -3.0845 H   0  0  0  0  0  0  0  0  0  0  0  0
    3.9161    1.2848    0.1346 C   0  0  0  0  0  0  0  0  0  0  0  0
    3.0442    1.5535    0.7400 H   0  0  0  0  0  0  0  0  0  0  0  0
    4.6685    0.8462    0.7983 H   0  0  0  0  0  0  0  0  0  0  0  0
    4.4080   -0.1798   -1.3451 H   0  0  0  0  0  0  0  0  0  0  0  0
    4.4154    2.4992   -0.6604 C   0  0  0  0  0  0  0  0  0  0  0  0
    3.3968    2.6300   -1.8168 C   0  0  0  0  0  0  0  0  0  0  0  0
    5.4176    2.2911   -1.0590 H   0  0  0  0  0  0  0  0  0  0  0  0
    4.4845    3.4095   -0.0557 H   0  0  0  0  0  0  0  0  0  0  0  0
    3.8318    3.1088   -2.7006 H   0  0  0  0  0  0  0  0  0  0  0  0
    2.5583    3.2551   -1.4936 H   0  0  0  0  0  0  0  0  0  0  0  0
   -0.7687   -2.4963    1.4290 C   0  0  1  0  0  3  0  0  0  0  0  0
   -1.7782   -2.8769    2.0649 O   0  0  0  0  0  0  0  0  0  0  0  0
   -1.5587    0.5188    2.6442 C   0  0  0  0  0  0  0  0  0  0  0  0
   -1.6826    0.8027    1.5946 H   0  0  0  0  0  0  0  0  0  0  0  0
   -2.5124    0.1121    3.0110 H   0  0  0  0  0  0  0  0  0  0  0  0
    0.7843    0.2281    3.3086 C   0  0  0  0  0  0  0  0  0  0  0  0
    1.5115   -0.4313    3.7945 H   0  0  0  0  0  0  0  0  0  0  0  0
    1.2910    0.7286    2.4769 H   0  0  0  0  0  0  0  0  0  0  0  0
   -0.7456   -1.2668    3.5508 H   0  0  0  0  0  0  0  0  0  0  0  0
   -1.1018    1.7390    3.4904 C   0  0  0  0  0  0  0  0  0  0  0  0
    0.1555    1.2615    4.2521 C   0  0  0  0  0  0  0  0  0  0  0  0
    0.8335    2.0844    4.4994 H   0  0  0  0  0  0  0  0  0  0  0  0
   -0.1323    0.7766    5.1949 H   0  0  0  0  0  0  0  0  0  0  0  0
   -0.8370    2.5702    2.8303 H   0  0  0  0  0  0  0  0  0  0  0  0
   -1.8853    2.1000    4.1650 H   0  0  0  0  0  0  0  0  0  0  0  0
    0.4854    1.3924    0.1488 N   0  0  0  0  0  0  0  0  0  0  0  0
    0.5636    2.5582    0.3989 C   0  0  0  0  0  0  0  0  0  0  0  0
    0.6493    4.1258    0.7378 S   0  0  0  0  0  0  0  0  0  0  0  0
  1 68  1  0  0  0  0
  1 15  1  0  0  0  0
  2  4  1  6  0  0  0
  2  1  1  0  0  0  0
  2  3  1  0  0  0  0
  2  5  1  0  0  0  0
  3  9  1  0  0  0  0
  5  8  1  0  0  0  0
  5 53  1  0  0  0  0
  6  4  1  0  0  0  0
  7  5  1  0  0  0  0
 10  3  1  0  0  0  0
 11 12  1  0  0  0  0
 11  4  1  0  0  0  0
 11 17  1  0  0  0  0
 13 11  1  0  0  0  0
 14 37  1  0  0  0  0
 14  1  1  0  0  0  0
 15 16  1  6  0  0  0
 16 58  1  0  0  0  0
 16 61  1  0  0  0  0
 17  1  1  0  0  0  0
 18 17  1  0  0  0  0
 18 21  1  0  0  0  0
 19 18  2  0  0  0  0
 20 54  1  0  0  0  0
 21 22  1  0  0  0  0
 23 29  1  0  0  0  0
 24 23  1  0  0  0  0
 25 23  1  0  0  0  0
 26 34  1  0  0  0  0
 27 26  1  0  0  0  0
 28 26  1  0  0  0  0
 29 26  1  0  0  0  0
 29 21  1  0  0  0  0
 29 36  1  0  0  0  0
 31 36  1  0  0  0  0
 32 36  1  0  0  0  0
 33  4  1  0  0  0  0
 35 23  1  0  0  0  0
 36 30  1  0  0  0  0
 37  3  1  0  0  0  0
 38 37  2  0  0  0  0
 39 14  1  0  0  0  0
 39 43  1  0  0  0  0
 40 41  1  0  0  0  0
 40 48  1  0  0  0  0
 40 39  1  0  0  0  0
 42 40  1  0  0  0  0
 43 44  1  0  0  0  0
 43 45  1  0  0  0  0
 46 39  1  0  0  0  0
 47 50  1  0  0  0  0
 47 43  1  0  0  0  0
 48 52  1  0  0  0  0
 48 47  1  0  0  0  0
 49 47  1  0  0  0  0
 51 48  1  0  0  0  0
 53 15  1  0  0  0  0
 53 54  1  6  0  0  0
 55 16  1  0  0  0  0
 55 57  1  0  0  0  0
 55 62  1  0  0  0  0
 56 55  1  0  0  0  0
 58 59  1  0  0  0  0
 58 63  1  0  0  0  0
 60 58  1  0  0  0  0
 62 67  1  0  0  0  0
 62 63  1  0  0  0  0
 63 64  1  0  0  0  0
 63 65  1  0  0  0  0
 66 62  1  0  0  0  0
 68 69  2  0  0  0  0
 69 70  2  0  0  0  0
M  END
$$$$
