
 OpenBabel02052520083D

 76 82  0  0  0  0  0  0  0  0999 V2000
    0.5539   -0.9871   -0.3721 Fe  0  0  0  0  0  0  0  0  0  0  0  0
   -1.1886   -2.0100   -0.2989 N   0  0  0  0  0  0  0  0  0  0  0  0
   -2.4384   -1.5285   -0.6367 C   0  0  0  0  0  0  0  0  0  0  0  0
   -2.4699   -0.5848   -1.6231 N   0  0  0  0  0  0  0  0  0  0  0  0
   -3.6791    0.0956   -2.1123 C   0  0  0  0  0  0  0  0  0  0  0  0
   -3.1960    1.1068   -3.1649 C   0  0  0  0  0  0  0  0  0  0  0  0
    1.1624   -2.7716    0.9935 N   0  0  2  0  0  0  0  0  0  0  0  0
    1.1384   -2.2298    2.3679 C   0  0  0  0  0  0  0  0  0  0  0  0
    1.5406   -0.7503    2.3556 C   0  0  0  0  0  0  0  0  0  0  0  0
    0.7401   -0.0070    1.3843 N   0  0  0  0  0  0  0  0  0  0  0  0
   -0.0797    0.9643    1.8727 C   0  0  0  0  0  0  0  0  0  0  0  0
   -0.7533    1.7130    0.8950 N   0  0  0  0  0  0  0  0  0  0  0  0
   -1.0650    3.1512    1.1158 C   0  0  0  0  0  0  0  0  0  0  0  0
   -2.2706    3.3069    2.0614 C   0  0  0  0  0  0  0  0  0  0  0  0
    2.2530   -1.4980   -1.1867 N   0  0  0  0  0  0  0  0  0  0  0  0
    3.2921   -0.5624   -1.0945 C   0  0  0  0  0  0  0  0  0  0  0  0
    2.9257    0.6921   -1.5153 N   0  0  0  0  0  0  0  0  0  0  0  0
    3.6093    1.9281   -1.0896 C   0  0  0  0  0  0  0  0  0  0  0  0
    3.7048    1.9838    0.4486 C   0  0  0  0  0  0  0  0  0  0  0  0
    2.5146   -3.1800    0.5462 C   0  0  0  0  0  0  0  0  0  0  0  0
    2.6554   -2.8788   -0.9504 C   0  0  0  0  0  0  0  0  0  0  0  0
    0.1361   -3.7919    0.7196 C   0  0  0  0  0  0  0  0  0  0  0  0
   -1.2445   -3.1554    0.6053 C   0  0  0  0  0  0  0  0  0  0  0  0
    4.4187   -0.8422   -0.6649 O   0  0  0  0  0  0  0  0  0  0  0  0
   -0.3329    1.1487    3.0861 O   0  0  0  0  0  0  0  0  0  0  0  0
   -3.4820   -1.8998   -0.0382 O   0  0  0  0  0  1  0  0  0  0  0  0
    0.1520    3.8988    1.6947 C   0  0  0  0  0  0  0  0  0  0  0  0
   -1.4180    3.7315   -0.2629 C   0  0  0  0  0  0  0  0  0  0  0  0
   -4.6321   -0.9257   -2.7590 C   0  0  0  0  0  0  0  0  0  0  0  0
   -4.4092    0.8488   -0.9791 C   0  0  0  0  0  0  0  0  0  0  0  0
    2.7394    3.0888   -1.5969 C   0  0  0  0  0  0  0  0  0  0  0  0
    5.0096    2.0036   -1.7216 C   0  0  0  0  0  0  0  0  0  0  0  0
   -2.7185   -0.2205    2.0113 K   0  0  0  0  0  0  0  0  0  0  0  0
    0.3849   -4.2543   -0.2395 H   0  0  0  0  0  0  0  0  0  0  0  0
    0.1177   -2.3151    2.7533 H   0  0  0  0  0  0  0  0  0  0  0  0
    1.7908   -2.8175    3.0323 H   0  0  0  0  0  0  0  0  0  0  0  0
    1.4229   -0.3274    3.3577 H   0  0  0  0  0  0  0  0  0  0  0  0
    2.5953   -0.6584    2.0668 H   0  0  0  0  0  0  0  0  0  0  0  0
    3.2527   -2.5675    1.0681 H   0  0  0  0  0  0  0  0  0  0  0  0
    2.7038   -4.2373    0.7897 H   0  0  0  0  0  0  0  0  0  0  0  0
   -1.5978   -2.8746    1.6158 H   0  0  0  0  0  0  0  0  0  0  0  0
   -1.9651   -3.9037    0.2545 H   0  0  0  0  0  0  0  0  0  0  0  0
    3.6921   -3.0451   -1.2592 H   0  0  0  0  0  0  0  0  0  0  0  0
    2.0063   -3.5349   -1.5429 H   0  0  0  0  0  0  0  0  0  0  0  0
    1.9516    0.7933   -1.7835 H   0  0  0  0  0  0  0  0  0  0  0  0
   -1.5739   -0.1893   -1.8983 H   0  0  0  0  0  0  0  0  0  0  0  0
   -0.4160    1.5169   -0.0489 H   0  0  0  0  0  0  0  0  0  0  0  0
    1.0132    3.8014    1.0251 H   0  0  0  0  0  0  0  0  0  0  0  0
   -0.0720    4.9655    1.8123 H   0  0  0  0  0  0  0  0  0  0  0  0
   -4.1334   -1.4306   -3.5933 H   0  0  0  0  0  0  0  0  0  0  0  0
   -2.5126    4.3663    2.2031 H   0  0  0  0  0  0  0  0  0  0  0  0
   -4.9306   -1.6776   -2.0246 H   0  0  0  0  0  0  0  0  0  0  0  0
   -5.2437    1.4350   -1.3801 H   0  0  0  0  0  0  0  0  0  0  0  0
   -4.8100    0.1345   -0.2544 H   0  0  0  0  0  0  0  0  0  0  0  0
   -2.2695    3.2060   -0.7083 H   0  0  0  0  0  0  0  0  0  0  0  0
   -2.5003    1.8310   -2.7244 H   0  0  0  0  0  0  0  0  0  0  0  0
   -2.6790    0.5948   -3.9845 H   0  0  0  0  0  0  0  0  0  0  0  0
   -4.0455    1.6552   -3.5847 H   0  0  0  0  0  0  0  0  0  0  0  0
   -0.5715    3.6516   -0.9546 H   0  0  0  0  0  0  0  0  0  0  0  0
   -1.6803    4.7907   -0.1707 H   0  0  0  0  0  0  0  0  0  0  0  0
    2.6484    3.0618   -2.6892 H   0  0  0  0  0  0  0  0  0  0  0  0
    1.7313    3.0329   -1.1683 H   0  0  0  0  0  0  0  0  0  0  0  0
    3.1806    4.0494   -1.3114 H   0  0  0  0  0  0  0  0  0  0  0  0
    4.9341    1.9833   -2.8146 H   0  0  0  0  0  0  0  0  0  0  0  0
    5.5124    2.9319   -1.4238 H   0  0  0  0  0  0  0  0  0  0  0  0
    5.6098    1.1504   -1.3994 H   0  0  0  0  0  0  0  0  0  0  0  0
    4.1563    2.9286    0.7740 H   0  0  0  0  0  0  0  0  0  0  0  0
    2.7069    1.8961    0.8921 H   0  0  0  0  0  0  0  0  0  0  0  0
   -2.0431    2.8690    3.0363 H   0  0  0  0  0  0  0  0  0  0  0  0
   -3.1620    2.8260    1.6327 H   0  0  0  0  0  0  0  0  0  0  0  0
    0.1409   -4.5835    1.4866 H   0  0  0  0  0  0  0  0  0  0  0  0
    4.3199    1.1584    0.8163 H   0  0  0  0  0  0  0  0  0  0  0  0
   -3.7204    1.5410   -0.4796 H   0  0  0  0  0  0  0  0  0  0  0  0
   -5.5292   -0.4247   -3.1425 H   0  0  0  0  0  0  0  0  0  0  0  0
    0.4236    3.4891    2.6708 H   0  0  0  0  0  0  0  0  0  0  0  0
    0.0596    0.4907   -1.4858 F   0  0  0  0  0  0  0  0  0  0  0  0
  1 10  1  0  0  0  0
  2 23  1  0  0  0  0
  2  1  9  0  0  0  0
  2 33  9  0  0  0  0
  3  2  2  0  0  0  0
  3 26  1  0  0  0  0
  4  3  1  0  0  0  0
  4 33  9  0  0  0  0
  5  4  1  0  0  0  0
  5 30  1  0  0  0  0
  6 56  1  0  0  0  0
  6  5  1  0  0  0  0
  7 20  1  6  0  0  0
  7  8  1  0  0  0  0
  7  1  9  0  0  0  0
  8 35  1  0  0  0  0
  8 36  1  0  0  0  0
  9  8  1  0  0  0  0
  9 37  1  0  0  0  0
 10 11  1  0  0  0  0
 10  9  1  0  0  0  0
 10 33  9  0  0  0  0
 11 25  2  0  0  0  0
 12 13  1  0  0  0  0
 12 11  1  0  0  0  0
 12 33  9  0  0  0  0
 13 27  1  0  0  0  0
 13 14  1  0  0  0  0
 14 51  1  0  0  0  0
 14 69  1  0  0  0  0
 15 16  1  0  0  0  0
 15 21  1  0  0  0  0
 15  1  1  0  0  0  0
 16 24  2  0  0  0  0
 17 16  1  0  0  0  0
 17 18  1  0  0  0  0
 18 19  1  0  0  0  0
 19 67  1  0  0  0  0
 19 72  1  0  0  0  0
 19 68  1  0  0  0  0
 20 40  1  0  0  0  0
 20 39  1  0  0  0  0
 21 20  1  0  0  0  0
 22  7  1  0  0  0  0
 22 71  1  0  0  0  0
 23 22  1  0  0  0  0
 23 41  1  0  0  0  0
 25 33  9  0  0  0  0
 27 49  1  0  0  0  0
 27 75  1  0  0  0  0
 28 60  1  0  0  0  0
 28 13  1  0  0  0  0
 29  5  1  0  0  0  0
 29 52  1  0  0  0  0
 30 73  1  0  0  0  0
 30 54  1  0  0  0  0
 31 63  1  0  0  0  0
 31 62  1  0  0  0  0
 31 18  1  0  0  0  0
 32 65  1  0  0  0  0
 32 66  1  0  0  0  0
 32 18  1  0  0  0  0
 34 22  1  0  0  0  0
 38  9  1  0  0  0  0
 42 23  1  0  0  0  0
 43 21  1  0  0  0  0
 44 21  1  0  0  0  0
 45 17  1  0  0  0  0
 46  4  1  0  0  0  0
 47 12  1  0  0  0  0
 48 27  1  0  0  0  0
 50 29  1  0  0  0  0
 53 30  1  0  0  0  0
 55 28  1  0  0  0  0
 57  6  1  0  0  0  0
 58  6  1  0  0  0  0
 59 28  1  0  0  0  0
 61 31  1  0  0  0  0
 64 32  1  0  0  0  0
 70 14  1  0  0  0  0
 74 29  1  0  0  0  0
 76  1  1  0  0  0  0
M  RAD  1  26   2
M  END
$$$$
