
 OpenBabel02052520083D

 77 83  0  0  0  0  0  0  0  0999 V2000
    0.4707   -1.0142   -0.4293 Fe  0  0  0  0  0  0  0  0  0  0  0  0
   -1.2988   -2.0008   -0.2102 N   0  0  0  0  0  0  0  0  0  0  0  0
   -2.5572   -1.5043   -0.4952 C   0  0  0  0  0  0  0  0  0  0  0  0
   -2.6254   -0.5962   -1.5119 N   0  0  0  0  0  0  0  0  0  0  0  0
   -3.8434    0.0976   -1.9534 C   0  0  0  0  0  0  0  0  0  0  0  0
   -3.4058    1.0351   -3.0913 C   0  0  0  0  0  0  0  0  0  0  0  0
    1.0896   -2.7731    1.0009 N   0  0  2  0  0  0  0  0  0  0  0  0
    1.1192   -2.1615    2.3443 C   0  0  0  0  0  0  0  0  0  0  0  0
    1.5613   -0.6964    2.2507 C   0  0  0  0  0  0  0  0  0  0  0  0
    0.7581    0.0324    1.2698 N   0  0  0  0  0  0  0  0  0  0  0  0
    0.0088    1.0712    1.7310 C   0  0  0  0  0  0  0  0  0  0  0  0
   -0.6359    1.8141    0.7348 N   0  0  0  0  0  0  0  0  0  0  0  0
   -0.9474    3.2559    0.9221 C   0  0  0  0  0  0  0  0  0  0  0  0
   -2.1572    3.4368    1.8585 C   0  0  0  0  0  0  0  0  0  0  0  0
    2.1963   -1.5567   -1.2140 N   0  0  0  0  0  0  0  0  0  0  0  0
    3.2803   -0.6835   -1.0782 C   0  0  0  0  0  0  0  0  0  0  0  0
    2.9938    0.6167   -1.4356 N   0  0  0  0  0  0  0  0  0  0  0  0
    3.7903    1.7781   -0.9944 C   0  0  0  0  0  0  0  0  0  0  0  0
    3.8951    1.8084    0.5435 C   0  0  0  0  0  0  0  0  0  0  0  0
    2.4147   -3.2359    0.5305 C   0  0  0  0  0  0  0  0  0  0  0  0
    2.5288   -2.9566   -0.9729 C   0  0  0  0  0  0  0  0  0  0  0  0
    0.0327   -3.7780    0.8081 C   0  0  0  0  0  0  0  0  0  0  0  0
   -1.3377   -3.1165    0.7315 C   0  0  0  0  0  0  0  0  0  0  0  0
    4.3964   -1.0458   -0.6819 O   0  0  0  0  0  0  0  0  0  0  0  0
   -0.2116    1.3184    2.9405 O   0  0  0  0  0  0  0  0  0  0  0  0
   -3.5717   -1.8299    0.1773 O   0  0  0  0  0  1  0  0  0  0  0  0
    0.2650    4.0172    1.4934 C   0  0  0  0  0  0  0  0  0  0  0  0
   -1.2929    3.8012   -0.4727 C   0  0  0  0  0  0  0  0  0  0  0  0
   -4.8727   -0.9201   -2.4772 C   0  0  0  0  0  0  0  0  0  0  0  0
   -4.4673    0.9362   -0.8168 C   0  0  0  0  0  0  0  0  0  0  0  0
    3.0309    3.0199   -1.4890 C   0  0  0  0  0  0  0  0  0  0  0  0
    5.1890    1.7386   -1.6328 C   0  0  0  0  0  0  0  0  0  0  0  0
   -2.6203   -0.0691    2.0761 K   0  0  0  0  0  0  0  0  0  0  0  0
    0.2308   -4.2773   -0.1448 H   0  0  0  0  0  0  0  0  0  0  0  0
    0.1085   -2.2006    2.7620 H   0  0  0  0  0  0  0  0  0  0  0  0
    1.7750   -2.7310    3.0216 H   0  0  0  0  0  0  0  0  0  0  0  0
    1.4850   -0.2261    3.2357 H   0  0  0  0  0  0  0  0  0  0  0  0
    2.6103   -0.6509    1.9322 H   0  0  0  0  0  0  0  0  0  0  0  0
    3.1894   -2.6484    1.0269 H   0  0  0  0  0  0  0  0  0  0  0  0
    2.5698   -4.2972    0.7809 H   0  0  0  0  0  0  0  0  0  0  0  0
   -1.6453   -2.7997    1.7461 H   0  0  0  0  0  0  0  0  0  0  0  0
   -2.0864   -3.8609    0.4349 H   0  0  0  0  0  0  0  0  0  0  0  0
    3.5434   -3.1871   -1.3127 H   0  0  0  0  0  0  0  0  0  0  0  0
    1.8238   -3.5802   -1.5364 H   0  0  0  0  0  0  0  0  0  0  0  0
    2.0067    0.8101   -1.5723 H   0  0  0  0  0  0  0  0  0  0  0  0
   -1.7287   -0.2178   -1.8272 H   0  0  0  0  0  0  0  0  0  0  0  0
   -0.3111    1.5941   -0.2077 H   0  0  0  0  0  0  0  0  0  0  0  0
    1.1320    3.9083    0.8336 H   0  0  0  0  0  0  0  0  0  0  0  0
    0.0381    5.0857    1.5861 H   0  0  0  0  0  0  0  0  0  0  0  0
   -4.4480   -1.4888   -3.3116 H   0  0  0  0  0  0  0  0  0  0  0  0
   -2.4004    4.4998    1.9673 H   0  0  0  0  0  0  0  0  0  0  0  0
   -5.1473   -1.6188   -1.6837 H   0  0  0  0  0  0  0  0  0  0  0  0
   -5.3215    1.5162   -1.1843 H   0  0  0  0  0  0  0  0  0  0  0  0
   -4.8217    0.2755   -0.0201 H   0  0  0  0  0  0  0  0  0  0  0  0
   -2.1428    3.2640   -0.9075 H   0  0  0  0  0  0  0  0  0  0  0  0
   -2.6505    1.7496   -2.7433 H   0  0  0  0  0  0  0  0  0  0  0  0
   -2.9742    0.4607   -3.9191 H   0  0  0  0  0  0  0  0  0  0  0  0
   -4.2639    1.5967   -3.4749 H   0  0  0  0  0  0  0  0  0  0  0  0
   -0.4428    3.6991   -1.1573 H   0  0  0  0  0  0  0  0  0  0  0  0
   -1.5528    4.8630   -0.4098 H   0  0  0  0  0  0  0  0  0  0  0  0
    2.9452    3.0154   -2.5820 H   0  0  0  0  0  0  0  0  0  0  0  0
    2.0190    3.0533   -1.0666 H   0  0  0  0  0  0  0  0  0  0  0  0
    3.5545    3.9331   -1.1877 H   0  0  0  0  0  0  0  0  0  0  0  0
    5.1060    1.7253   -2.7255 H   0  0  0  0  0  0  0  0  0  0  0  0
    5.7638    2.6250   -1.3380 H   0  0  0  0  0  0  0  0  0  0  0  0
    5.7221    0.8412   -1.3151 H   0  0  0  0  0  0  0  0  0  0  0  0
    4.4455    2.6955    0.8790 H   0  0  0  0  0  0  0  0  0  0  0  0
    2.8946    1.8244    0.9899 H   0  0  0  0  0  0  0  0  0  0  0  0
   -1.9304    3.0315    2.8478 H   0  0  0  0  0  0  0  0  0  0  0  0
   -3.0463    2.9421    1.4433 H   0  0  0  0  0  0  0  0  0  0  0  0
    0.0539   -4.5446    1.6004 H   0  0  0  0  0  0  0  0  0  0  0  0
    4.4203    0.9174    0.8977 H   0  0  0  0  0  0  0  0  0  0  0  0
   -3.7273    1.6412   -0.4190 H   0  0  0  0  0  0  0  0  0  0  0  0
   -5.7749   -0.4064   -2.8308 H   0  0  0  0  0  0  0  0  0  0  0  0
    0.5294    3.6279    2.4795 H   0  0  0  0  0  0  0  0  0  0  0  0
   -0.0032    0.3836   -1.7060 O   0  0  0  0  0  0  0  0  0  0  0  0
    0.3650    0.1957   -2.5850 H   0  0  0  0  0  0  0  0  0  0  0  0
  1 10  1  0  0  0  0
  2 23  1  0  0  0  0
  2  1  9  0  0  0  0
  2 33  9  0  0  0  0
  3  2  2  0  0  0  0
  3 26  1  0  0  0  0
  4  3  1  0  0  0  0
  4 33  9  0  0  0  0
  5  4  1  0  0  0  0
  5 30  1  0  0  0  0
  6 56  1  0  0  0  0
  6  5  1  0  0  0  0
  7 20  1  6  0  0  0
  7  8  1  0  0  0  0
  7  1  9  0  0  0  0
  8 35  1  0  0  0  0
  8 36  1  0  0  0  0
  9  8  1  0  0  0  0
  9 37  1  0  0  0  0
 10 11  1  0  0  0  0
 10  9  1  0  0  0  0
 10 33  9  0  0  0  0
 11 25  2  0  0  0  0
 12 13  1  0  0  0  0
 12 11  1  0  0  0  0
 12 33  9  0  0  0  0
 13 27  1  0  0  0  0
 13 14  1  0  0  0  0
 14 51  1  0  0  0  0
 14 69  1  0  0  0  0
 15 16  1  0  0  0  0
 15 21  1  0  0  0  0
 15  1  1  0  0  0  0
 16 24  2  0  0  0  0
 17 16  1  0  0  0  0
 17 18  1  0  0  0  0
 18 19  1  0  0  0  0
 19 67  1  0  0  0  0
 19 72  1  0  0  0  0
 19 68  1  0  0  0  0
 20 40  1  0  0  0  0
 20 39  1  0  0  0  0
 21 20  1  0  0  0  0
 22  7  1  0  0  0  0
 22 71  1  0  0  0  0
 23 22  1  0  0  0  0
 23 41  1  0  0  0  0
 25 33  9  0  0  0  0
 27 49  1  0  0  0  0
 27 75  1  0  0  0  0
 28 60  1  0  0  0  0
 28 13  1  0  0  0  0
 29  5  1  0  0  0  0
 29 52  1  0  0  0  0
 30 73  1  0  0  0  0
 30 54  1  0  0  0  0
 31 63  1  0  0  0  0
 31 62  1  0  0  0  0
 31 18  1  0  0  0  0
 32 65  1  0  0  0  0
 32 66  1  0  0  0  0
 32 18  1  0  0  0  0
 34 22  1  0  0  0  0
 38  9  1  0  0  0  0
 42 23  1  0  0  0  0
 43 21  1  0  0  0  0
 44 21  1  0  0  0  0
 45 17  1  0  0  0  0
 46  4  1  0  0  0  0
 47 12  1  0  0  0  0
 48 27  1  0  0  0  0
 50 29  1  0  0  0  0
 53 30  1  0  0  0  0
 55 28  1  0  0  0  0
 57  6  1  0  0  0  0
 58  6  1  0  0  0  0
 59 28  1  0  0  0  0
 61 31  1  0  0  0  0
 64 32  1  0  0  0  0
 70 14  1  0  0  0  0
 74 29  1  0  0  0  0
 76  1  1  0  0  0  0
 77 76  1  0  0  0  0
M  RAD  1  26   2
M  END
$$$$
