G:\CZW\XYZ\0151-6FeH3BueaClK.xyz
 OpenBabel02052522413D

 76 78  0  0  1  0  0  0  0  0999 V2000
   -0.2952   -0.9977    0.0890 Fe  0  0  0  0  0  0  0  0  0  0  0  0
    1.5193   -1.7497   -0.4204 N   0  0  0  0  0  0  0  0  0  0  0  0
    2.7619   -1.3543    0.0462 C   0  0  1  0  0  3  0  0  0  0  0  0
    2.9004   -1.3154    1.3997 N   0  0  0  0  0  0  0  0  0  0  0  0
    3.9532   -0.5616    2.1160 C   0  0  0  0  0  0  0  0  0  0  0  0
    3.5714   -0.6019    3.6043 C   0  0  0  0  0  0  0  0  0  0  0  0
   -0.8503   -2.4795   -1.7112 N   0  0  2  0  0  4  0  0  0  0  0  0
   -1.2177   -1.5734   -2.8173 C   0  0  0  0  0  0  0  0  0  0  0  0
   -1.8259   -0.2918   -2.2455 C   0  0  0  0  0  0  0  0  0  0  0  0
   -0.9011    0.3362   -1.2948 N   0  0  0  0  0  0  0  0  0  0  0  0
   -0.3560    1.5219   -1.7016 C   0  0  0  0  0  0  0  0  0  0  0  0
    0.4223    2.1749   -0.7232 N   0  0  0  0  0  0  0  0  0  0  0  0
    0.4611    3.6644   -0.6583 C   0  0  0  0  0  0  0  0  0  0  0  0
    1.3006    4.2434   -1.8110 C   0  0  0  0  0  0  0  0  0  0  0  0
   -1.8115   -1.9835    0.8181 N   0  0  0  0  0  0  0  0  0  0  0  0
   -3.0437   -1.3157    0.9310 C   0  0  0  0  0  0  0  0  0  0  0  0
   -2.9606   -0.1505    1.6362 N   0  0  0  0  0  0  0  0  0  0  0  0
   -3.9585    0.9339    1.5979 C   0  0  0  0  0  0  0  0  0  0  0  0
   -4.2071    1.3718    0.1412 C   0  0  0  0  0  0  0  0  0  0  0  0
   -1.9789   -3.2992   -1.2189 C   0  0  0  0  0  0  0  0  0  0  0  0
   -1.9166   -3.3485    0.3129 C   0  0  0  0  0  0  0  0  0  0  0  0
    0.3722   -3.2596   -1.9425 C   0  0  0  0  0  0  0  0  0  0  0  0
    1.5942   -2.3764   -1.7418 C   0  0  0  0  0  0  0  0  0  0  0  0
   -4.0889   -1.7407    0.4193 O   0  0  0  0  0  0  0  0  0  0  0  0
   -0.4348    1.9900   -2.8538 O   0  0  0  0  0  0  0  0  0  0  0  0
    3.7090   -1.0630   -0.7288 O   0  0  0  0  0  0  0  0  0  0  0  0
   -0.9647    4.2458   -0.7036 C   0  0  0  0  0  0  0  0  0  0  0  0
    1.1268    4.0090    0.6837 C   0  0  0  0  0  0  0  0  0  0  0  0
    5.3145   -1.2448    1.9016 C   0  0  0  0  0  0  0  0  0  0  0  0
    4.0028    0.9051    1.6399 C   0  0  0  0  0  0  0  0  0  0  0  0
   -3.3521    2.1012    2.3924 C   0  0  0  0  0  0  0  0  0  0  0  0
   -5.2708    0.4706    2.2546 C   0  0  0  0  0  0  0  0  0  0  0  0
    2.5855    0.9301   -2.0388 K   0  0  0  0  0  0  0  0  0  0  0  0
    0.4025   -4.0618   -1.1994 H   0  0  0  0  0  0  0  0  0  0  0  0
   -0.3125   -1.3134   -3.3744 H   0  0  0  0  0  0  0  0  0  0  0  0
   -1.9077   -2.0694   -3.5172 H   0  0  0  0  0  0  0  0  0  0  0  0
   -2.0642    0.4001   -3.0576 H   0  0  0  0  0  0  0  0  0  0  0  0
   -2.7524   -0.5331   -1.7130 H   0  0  0  0  0  0  0  0  0  0  0  0
   -2.9169   -2.8130   -1.4890 H   0  0  0  0  0  0  0  0  0  0  0  0
   -1.9623   -4.3015   -1.6734 H   0  0  0  0  0  0  0  0  0  0  0  0
    1.6324   -1.6396   -2.5666 H   0  0  0  0  0  0  0  0  0  0  0  0
    2.5079   -2.9736   -1.8404 H   0  0  0  0  0  0  0  0  0  0  0  0
   -2.8096   -3.8481    0.7030 H   0  0  0  0  0  0  0  0  0  0  0  0
   -1.0303   -3.9024    0.6448 H   0  0  0  0  0  0  0  0  0  0  0  0
   -2.0512    0.0722    2.0242 H   0  0  0  0  0  0  0  0  0  0  0  0
    2.0369   -1.4468    1.9100 H   0  0  0  0  0  0  0  0  0  0  0  0
    0.2559    1.7811    0.2021 H   0  0  0  0  0  0  0  0  0  0  0  0
   -1.5674    3.8377    0.1158 H   0  0  0  0  0  0  0  0  0  0  0  0
   -0.9427    5.3370   -0.6019 H   0  0  0  0  0  0  0  0  0  0  0  0
    5.2854   -2.2739    2.2762 H   0  0  0  0  0  0  0  0  0  0  0  0
    1.3281    5.3368   -1.7457 H   0  0  0  0  0  0  0  0  0  0  0  0
    5.5613   -1.2696    0.8380 H   0  0  0  0  0  0  0  0  0  0  0  0
    4.7070    1.4810    2.2511 H   0  0  0  0  0  0  0  0  0  0  0  0
    4.3437    0.9510    0.6008 H   0  0  0  0  0  0  0  0  0  0  0  0
    2.1335    3.5779    0.7457 H   0  0  0  0  0  0  0  0  0  0  0  0
    2.6096   -0.1058    3.7753 H   0  0  0  0  0  0  0  0  0  0  0  0
    3.4986   -1.6377    3.9567 H   0  0  0  0  0  0  0  0  0  0  0  0
    4.3348   -0.0927    4.2015 H   0  0  0  0  0  0  0  0  0  0  0  0
    0.5454    3.6199    1.5272 H   0  0  0  0  0  0  0  0  0  0  0  0
    1.2100    5.0952    0.7959 H   0  0  0  0  0  0  0  0  0  0  0  0
   -3.1520    1.8087    3.4299 H   0  0  0  0  0  0  0  0  0  0  0  0
   -2.4070    2.4307    1.9442 H   0  0  0  0  0  0  0  0  0  0  0  0
   -4.0442    2.9496    2.4025 H   0  0  0  0  0  0  0  0  0  0  0  0
   -5.0928    0.1812    3.2965 H   0  0  0  0  0  0  0  0  0  0  0  0
   -6.0101    1.2806    2.2401 H   0  0  0  0  0  0  0  0  0  0  0  0
   -5.6730   -0.3912    1.7179 H   0  0  0  0  0  0  0  0  0  0  0  0
   -4.9025    2.2187    0.1099 H   0  0  0  0  0  0  0  0  0  0  0  0
   -3.2640    1.6718   -0.3288 H   0  0  0  0  0  0  0  0  0  0  0  0
    0.8784    3.9550   -2.7752 H   0  0  0  0  0  0  0  0  0  0  0  0
    2.3436    3.8959   -1.7466 H   0  0  0  0  0  0  0  0  0  0  0  0
    0.3733   -3.7216   -2.9435 H   0  0  0  0  0  0  0  0  0  0  0  0
   -4.6371    0.5472   -0.4328 H   0  0  0  0  0  0  0  0  0  0  0  0
    3.0111    1.3619    1.7224 H   0  0  0  0  0  0  0  0  0  0  0  0
    6.0996   -0.7016    2.4413 H   0  0  0  0  0  0  0  0  0  0  0  0
   -1.4494    3.9932   -1.6506 H   0  0  0  0  0  0  0  0  0  0  0  0
    0.2641    0.4015    1.9937 Cl  0  0  0  0  0  0  0  0  0  0  0  0
  1 15  1  0  0  0  0
  1 76  1  0  0  0  0
  2  3  1  0  0  0  0
  2  1  1  0  0  0  0
  3 26  1  6  0  0  0
  3  4  1  0  0  0  0
  4 46  1  0  0  0  0
  4  5  1  0  0  0  0
  5  6  1  0  0  0  0
  6 56  1  0  0  0  0
  6 57  1  0  0  0  0
  6 58  1  0  0  0  0
  7  8  1  6  0  0  0
  7 20  1  0  0  0  0
  7  1  1  0  0  0  0
  8  9  1  0  0  0  0
  9 38  1  0  0  0  0
  9 10  1  0  0  0  0
 10  1  1  0  0  0  0
 11 10  1  0  0  0  0
 11 12  1  0  0  0  0
 12 13  1  0  0  0  0
 12 47  1  0  0  0  0
 13 28  1  0  0  0  0
 14 70  1  0  0  0  0
 14 51  1  0  0  0  0
 14 13  1  0  0  0  0
 15 16  1  0  0  0  0
 16 17  1  0  0  0  0
 17 45  1  0  0  0  0
 18 17  1  0  0  0  0
 18 32  1  0  0  0  0
 18 31  1  0  0  0  0
 19 18  1  0  0  0  0
 20 21  1  0  0  0  0
 21 44  1  0  0  0  0
 21 43  1  0  0  0  0
 21 15  1  0  0  0  0
 22 23  1  0  0  0  0
 22  7  1  0  0  0  0
 22 34  1  0  0  0  0
 23  2  1  0  0  0  0
 24 16  2  0  0  0  0
 25 11  2  0  0  0  0
 27 13  1  0  0  0  0
 27 49  1  0  0  0  0
 27 48  1  0  0  0  0
 28 55  1  0  0  0  0
 28 60  1  0  0  0  0
 28 59  1  0  0  0  0
 29  5  1  0  0  0  0
 29 50  1  0  0  0  0
 29 74  1  0  0  0  0
 30 73  1  0  0  0  0
 30  5  1  0  0  0  0
 30 53  1  0  0  0  0
 31 63  1  0  0  0  0
 31 61  1  0  0  0  0
 32 64  1  0  0  0  0
 33 26  1  0  0  0  0
 35  8  1  0  0  0  0
 36  8  1  0  0  0  0
 37  9  1  0  0  0  0
 39 20  1  0  0  0  0
 40 20  1  0  0  0  0
 41 23  1  0  0  0  0
 42 23  1  0  0  0  0
 52 29  1  0  0  0  0
 54 30  1  0  0  0  0
 62 31  1  0  0  0  0
 65 32  1  0  0  0  0
 66 32  1  0  0  0  0
 67 19  1  0  0  0  0
 68 19  1  0  0  0  0
 69 14  1  0  0  0  0
 71 22  1  0  0  0  0
 72 19  1  0  0  0  0
 75 27  1  0  0  0  0
M  END
$$$$
