G:\CZW\XYZ\0151-6FeH3BueaOH.xyz
 OpenBabel02052522423D

 77 79  0  0  1  0  0  0  0  0999 V2000
    0.1202    0.3820    1.3731 O   0  0  0  0  0  0  0  0  0  0  0  0
   -0.3131   -0.9760    0.0924 Fe  0  0  0  0  0  0  0  0  0  0  0  0
    1.5195   -1.8492   -0.2541 N   0  0  0  0  0  0  0  0  0  0  0  0
    2.6712   -1.2603    0.1857 C   0  0  2  0  0  3  0  0  0  0  0  0
    2.6855   -1.0098    1.5479 N   0  0  0  0  0  0  0  0  0  0  0  0
    3.8017   -0.3911    2.2920 C   0  0  0  0  0  0  0  0  0  0  0  0
    3.3352   -0.2944    3.7538 C   0  0  0  0  0  0  0  0  0  0  0  0
   -0.8113   -2.5819   -1.6262 N   0  0  2  0  0  4  0  0  0  0  0  0
   -1.1012   -1.7837   -2.8326 C   0  0  0  0  0  0  0  0  0  0  0  0
   -1.6966   -0.4329   -2.4337 C   0  0  0  0  0  0  0  0  0  0  0  0
   -0.8285    0.2269   -1.4598 N   0  0  0  0  0  0  0  0  0  0  0  0
   -0.4052    1.4872   -1.7898 C   0  0  0  0  0  0  0  0  0  0  0  0
    0.3267    2.1352   -0.7803 N   0  0  0  0  0  0  0  0  0  0  0  0
    0.3585    3.6163   -0.6856 C   0  0  0  0  0  0  0  0  0  0  0  0
    1.2368    4.2159   -1.8000 C   0  0  0  0  0  0  0  0  0  0  0  0
   -1.7617   -1.9902    0.9236 N   0  0  0  0  0  0  0  0  0  0  0  0
   -2.9403   -1.2857    1.1809 C   0  0  0  0  0  0  0  0  0  0  0  0
   -2.7226   -0.1042    1.8524 N   0  0  0  0  0  0  0  0  0  0  0  0
   -3.6284    1.0571    1.7610 C   0  0  0  0  0  0  0  0  0  0  0  0
   -3.8958    1.4087    0.2833 C   0  0  0  0  0  0  0  0  0  0  0  0
   -1.9909   -3.3136   -1.1136 C   0  0  0  0  0  0  0  0  0  0  0  0
   -1.9448   -3.3439    0.4178 C   0  0  0  0  0  0  0  0  0  0  0  0
    0.3979   -3.4106   -1.7336 C   0  0  0  0  0  0  0  0  0  0  0  0
    1.6416   -2.5490   -1.5293 C   0  0  0  0  0  0  0  0  0  0  0  0
   -4.0598   -1.6803    0.8277 O   0  0  0  0  0  0  0  0  0  0  0  0
   -0.5347    2.0107   -2.9160 O   0  0  0  0  0  0  0  0  0  0  0  0
    3.6259   -0.9188   -0.5551 O   0  0  0  0  0  0  0  0  0  0  0  0
   -1.0609    4.2112   -0.7648 C   0  0  0  0  0  0  0  0  0  0  0  0
    0.9816    3.9369    0.6829 C   0  0  0  0  0  0  0  0  0  0  0  0
    5.0746   -1.2517    2.1940 C   0  0  0  0  0  0  0  0  0  0  0  0
    4.0612    1.0253    1.7462 C   0  0  0  0  0  0  0  0  0  0  0  0
   -2.8960    2.2216    2.4467 C   0  0  0  0  0  0  0  0  0  0  0  0
   -4.9486    0.7614    2.4926 C   0  0  0  0  0  0  0  0  0  0  0  0
    2.4490    0.8490   -2.1528 K   0  0  0  0  0  0  0  0  0  0  0  0
    0.3657   -4.1591   -0.9371 H   0  0  0  0  0  0  0  0  0  0  0  0
   -0.1607   -1.6077   -3.3657 H   0  0  0  0  0  0  0  0  0  0  0  0
   -1.7683   -2.3323   -3.5165 H   0  0  0  0  0  0  0  0  0  0  0  0
   -1.8292    0.1934   -3.3206 H   0  0  0  0  0  0  0  0  0  0  0  0
   -2.6834   -0.5858   -1.9762 H   0  0  0  0  0  0  0  0  0  0  0  0
   -2.8894   -2.7604   -1.3952 H   0  0  0  0  0  0  0  0  0  0  0  0
   -2.0520   -4.3213   -1.5560 H   0  0  0  0  0  0  0  0  0  0  0  0
    1.7406   -1.8625   -2.3910 H   0  0  0  0  0  0  0  0  0  0  0  0
    2.5410   -3.1781   -1.5508 H   0  0  0  0  0  0  0  0  0  0  0  0
   -2.8737   -3.7811    0.7985 H   0  0  0  0  0  0  0  0  0  0  0  0
   -1.1039   -3.9585    0.7639 H   0  0  0  0  0  0  0  0  0  0  0  0
   -1.7444    0.1180    2.0265 H   0  0  0  0  0  0  0  0  0  0  0  0
    2.0818   -1.6280    2.0763 H   0  0  0  0  0  0  0  0  0  0  0  0
    0.2040    1.6726    0.1324 H   0  0  0  0  0  0  0  0  0  0  0  0
   -1.6893    3.8033    0.0338 H   0  0  0  0  0  0  0  0  0  0  0  0
   -1.0305    5.3018   -0.6549 H   0  0  0  0  0  0  0  0  0  0  0  0
    4.8961   -2.2480    2.6154 H   0  0  0  0  0  0  0  0  0  0  0  0
    1.2705    5.3082   -1.7161 H   0  0  0  0  0  0  0  0  0  0  0  0
    5.3704   -1.3630    1.1482 H   0  0  0  0  0  0  0  0  0  0  0  0
    4.8033    1.5392    2.3669 H   0  0  0  0  0  0  0  0  0  0  0  0
    4.4399    0.9748    0.7230 H   0  0  0  0  0  0  0  0  0  0  0  0
    1.9925    3.5170    0.7609 H   0  0  0  0  0  0  0  0  0  0  0  0
    2.4250    0.3111    3.8384 H   0  0  0  0  0  0  0  0  0  0  0  0
    3.1269   -1.2889    4.1686 H   0  0  0  0  0  0  0  0  0  0  0  0
    4.1137    0.1667    4.3696 H   0  0  0  0  0  0  0  0  0  0  0  0
    0.3789    3.5204    1.4981 H   0  0  0  0  0  0  0  0  0  0  0  0
    1.0499    5.0206    0.8260 H   0  0  0  0  0  0  0  0  0  0  0  0
   -2.7002    1.9915    3.5009 H   0  0  0  0  0  0  0  0  0  0  0  0
   -1.9344    2.4168    1.9574 H   0  0  0  0  0  0  0  0  0  0  0  0
   -3.5017    3.1328    2.4000 H   0  0  0  0  0  0  0  0  0  0  0  0
   -4.7539    0.5286    3.5457 H   0  0  0  0  0  0  0  0  0  0  0  0
   -5.6141    1.6325    2.4453 H   0  0  0  0  0  0  0  0  0  0  0  0
   -5.4442   -0.0965    2.0343 H   0  0  0  0  0  0  0  0  0  0  0  0
   -4.5210    2.3061    0.2033 H   0  0  0  0  0  0  0  0  0  0  0  0
   -2.9501    1.5900   -0.2388 H   0  0  0  0  0  0  0  0  0  0  0  0
    0.8387    3.9474   -2.7806 H   0  0  0  0  0  0  0  0  0  0  0  0
    2.2744    3.8566   -1.7118 H   0  0  0  0  0  0  0  0  0  0  0  0
    0.4407   -3.9440   -2.6977 H   0  0  0  0  0  0  0  0  0  0  0  0
   -4.4104    0.5805   -0.2115 H   0  0  0  0  0  0  0  0  0  0  0  0
    3.1358    1.6133    1.7572 H   0  0  0  0  0  0  0  0  0  0  0  0
    5.8973   -0.7878    2.7509 H   0  0  0  0  0  0  0  0  0  0  0  0
   -1.5203    3.9682   -1.7261 H   0  0  0  0  0  0  0  0  0  0  0  0
    1.0208    0.2558    1.7188 H   0  0  0  0  0  0  0  0  0  0  0  0
  1 77  1  0  0  0  0
  2 16  1  0  0  0  0
  2  1  1  0  0  0  0
  3  2  1  0  0  0  0
  3  4  1  0  0  0  0
  4 27  1  6  0  0  0
  4  5  1  0  0  0  0
  5 47  1  0  0  0  0
  5  6  1  0  0  0  0
  6  7  1  0  0  0  0
  7 57  1  0  0  0  0
  7 58  1  0  0  0  0
  7 59  1  0  0  0  0
  8  9  1  6  0  0  0
  8 21  1  0  0  0  0
  8  2  1  0  0  0  0
  9 10  1  0  0  0  0
 10 39  1  0  0  0  0
 10 11  1  0  0  0  0
 11  2  1  0  0  0  0
 12 11  1  0  0  0  0
 12 13  1  0  0  0  0
 13 14  1  0  0  0  0
 13 48  1  0  0  0  0
 14 29  1  0  0  0  0
 15 52  1  0  0  0  0
 15 71  1  0  0  0  0
 15 14  1  0  0  0  0
 16 17  1  0  0  0  0
 17 18  1  0  0  0  0
 18 46  1  0  0  0  0
 19 18  1  0  0  0  0
 19 32  1  0  0  0  0
 19 33  1  0  0  0  0
 20 19  1  0  0  0  0
 21 22  1  0  0  0  0
 22 45  1  0  0  0  0
 22 44  1  0  0  0  0
 22 16  1  0  0  0  0
 23  8  1  0  0  0  0
 23 24  1  0  0  0  0
 23 35  1  0  0  0  0
 24  3  1  0  0  0  0
 25 17  2  0  0  0  0
 26 12  2  0  0  0  0
 28 14  1  0  0  0  0
 28 50  1  0  0  0  0
 28 49  1  0  0  0  0
 29 56  1  0  0  0  0
 29 61  1  0  0  0  0
 29 60  1  0  0  0  0
 30  6  1  0  0  0  0
 30 51  1  0  0  0  0
 30 75  1  0  0  0  0
 31 74  1  0  0  0  0
 31  6  1  0  0  0  0
 31 54  1  0  0  0  0
 32 62  1  0  0  0  0
 33 65  1  0  0  0  0
 34 27  1  0  0  0  0
 36  9  1  0  0  0  0
 37  9  1  0  0  0  0
 38 10  1  0  0  0  0
 40 21  1  0  0  0  0
 41 21  1  0  0  0  0
 42 24  1  0  0  0  0
 43 24  1  0  0  0  0
 53 30  1  0  0  0  0
 55 31  1  0  0  0  0
 63 32  1  0  0  0  0
 64 32  1  0  0  0  0
 66 33  1  0  0  0  0
 67 33  1  0  0  0  0
 68 20  1  0  0  0  0
 69 20  1  0  0  0  0
 70 15  1  0  0  0  0
 72 23  1  0  0  0  0
 73 20  1  0  0  0  0
 76 28  1  0  0  0  0
M  END
$$$$
