G:\CZW\XYZ\0151-6FeH1CYPBrK.xyz
 OpenBabel02052522323D

 68 72  0  0  1  0  0  0  0  0999 V2000
    0.6787   -0.3500   -0.2864 Fe  0  0  0  0  0  0  0  0  0  0  0  0
    0.8396   -2.3509   -1.2745 N   0  0  2  0  0  4  0  0  0  0  0  0
    2.1322   -2.8564   -0.8010 C   0  0  0  0  0  0  0  0  0  0  0  0
    0.8166   -1.9676   -2.6972 C   0  0  0  0  0  0  0  0  0  0  0  0
   -0.3063   -3.1422   -0.8258 C   0  0  0  0  0  0  0  0  0  0  0  0
    1.7407   -1.4183   -2.8870 H   0  0  0  0  0  0  0  0  0  0  0  0
   -1.1239   -3.0472   -1.5444 H   0  0  0  0  0  0  0  0  0  0  0  0
   -0.0691   -4.2128   -0.7626 H   0  0  0  0  0  0  0  0  0  0  0  0
    1.9888   -3.2530    0.2089 H   0  0  0  0  0  0  0  0  0  0  0  0
    2.5249   -3.6599   -1.4379 H   0  0  0  0  0  0  0  0  0  0  0  0
   -0.4008   -1.0734   -2.9679 C   0  0  0  0  0  0  0  0  0  0  0  0
   -1.2857   -1.6759   -3.1972 H   0  0  0  0  0  0  0  0  0  0  0  0
   -0.2037   -0.4720   -3.8655 H   0  0  0  0  0  0  0  0  0  0  0  0
    2.6163   -0.4740   -0.6616 N   0  0  0  0  0  0  0  0  0  0  0  0
   -0.1574   -1.6356    1.0838 N   0  0  1  0  0  0  0  0  0  0  0  0
   -0.4153   -1.3843    2.5080 C   0  0  0  0  0  0  0  0  0  0  0  0
   -0.6817   -0.2015   -1.8171 N   0  0  0  0  0  0  0  0  0  0  0  0
   -1.9977    0.1618   -1.7357 C   0  0  0  0  0  0  0  0  0  0  0  0
   -2.9062   -0.3033   -2.4591 O   0  0  0  0  0  0  0  0  0  0  0  0
   -3.5359   -1.4252    0.2684 K   0  0  0  0  0  0  0  0  0  0  0  0
   -2.3377    1.0329   -0.6848 N   0  0  0  0  0  0  0  0  0  0  0  0
   -1.5060    1.4360   -0.2575 H   0  0  0  0  0  0  0  0  0  0  0  0
   -3.0599    2.8824   -2.1903 C   0  0  0  0  0  0  0  0  0  0  0  0
   -2.0470    3.2989   -2.1554 H   0  0  0  0  0  0  0  0  0  0  0  0
   -3.1367    2.2211   -3.0582 H   0  0  0  0  0  0  0  0  0  0  0  0
   -4.7822    1.5240   -0.9503 C   0  0  0  0  0  0  0  0  0  0  0  0
   -5.5106    2.3309   -1.0862 H   0  0  0  0  0  0  0  0  0  0  0  0
   -4.8808    0.8178   -1.7769 H   0  0  0  0  0  0  0  0  0  0  0  0
   -3.3582    2.1055   -0.8947 C   0  0  0  0  0  0  0  0  0  0  0  0
   -3.4127    2.4893    1.2544 H   0  0  0  0  0  0  0  0  0  0  0  0
   -2.2440    3.4909    0.3799 H   0  0  0  0  0  0  0  0  0  0  0  0
   -3.9800    3.8428    0.2515 H   0  0  0  0  0  0  0  0  0  0  0  0
    0.8028   -2.8530   -3.3510 H   0  0  0  0  0  0  0  0  0  0  0  0
   -5.0382    1.0278   -0.0010 H   0  0  0  0  0  0  0  0  0  0  0  0
   -3.7676    3.7094   -2.3190 H   0  0  0  0  0  0  0  0  0  0  0  0
   -3.2397    3.0388    0.3210 C   0  0  0  0  0  0  0  0  0  0  0  0
    3.1644   -1.7292   -0.7295 C   0  0  0  0  0  0  0  0  0  0  0  0
    4.3619   -2.0056   -0.7416 O   0  0  0  0  0  0  0  0  0  0  0  0
    3.5821    0.6246   -0.7938 C   0  0  0  0  0  0  0  0  0  0  0  0
    3.0546    1.8407   -1.6081 C   0  0  0  0  0  0  0  0  0  0  0  0
    1.9616    1.8403   -1.6541 H   0  0  0  0  0  0  0  0  0  0  0  0
    3.4193    1.7850   -2.6406 H   0  0  0  0  0  0  0  0  0  0  0  0
    4.0975    1.2036    0.5392 C   0  0  0  0  0  0  0  0  0  0  0  0
    3.2641    1.3188    1.2391 H   0  0  0  0  0  0  0  0  0  0  0  0
    4.8449    0.5461    0.9949 H   0  0  0  0  0  0  0  0  0  0  0  0
    4.4500    0.2083   -1.3157 H   0  0  0  0  0  0  0  0  0  0  0  0
    4.6403    2.5788    0.1243 C   0  0  0  0  0  0  0  0  0  0  0  0
    3.5813    3.1004   -0.8722 C   0  0  0  0  0  0  0  0  0  0  0  0
    5.6100    2.4592   -0.3787 H   0  0  0  0  0  0  0  0  0  0  0  0
    4.7931    3.2548    0.9729 H   0  0  0  0  0  0  0  0  0  0  0  0
    3.9829    3.8538   -1.5585 H   0  0  0  0  0  0  0  0  0  0  0  0
    2.7598    3.5644   -0.3164 H   0  0  0  0  0  0  0  0  0  0  0  0
   -0.8060   -2.6831    0.5449 C   0  0  1  0  0  3  0  0  0  0  0  0
   -1.7872   -3.2872    1.0361 O   0  0  0  0  0  0  0  0  0  0  0  0
   -1.5177   -0.3290    2.8351 C   0  0  0  0  0  0  0  0  0  0  0  0
   -1.7065    0.3066    1.9645 H   0  0  0  0  0  0  0  0  0  0  0  0
   -2.4538   -0.8381    3.1084 H   0  0  0  0  0  0  0  0  0  0  0  0
    0.8384   -0.9031    3.2604 C   0  0  0  0  0  0  0  0  0  0  0  0
    1.5352   -1.7257    3.4555 H   0  0  0  0  0  0  0  0  0  0  0  0
    1.3633   -0.1512    2.6629 H   0  0  0  0  0  0  0  0  0  0  0  0
   -0.7319   -2.3384    2.9442 H   0  0  0  0  0  0  0  0  0  0  0  0
   -0.9694    0.5142    4.0160 C   0  0  0  0  0  0  0  0  0  0  0  0
    0.2614   -0.2636    4.5305 C   0  0  0  0  0  0  0  0  0  0  0  0
    0.9796    0.3791    5.0500 H   0  0  0  0  0  0  0  0  0  0  0  0
   -0.0498   -1.0468    5.2358 H   0  0  0  0  0  0  0  0  0  0  0  0
   -0.6498    1.4906    3.6394 H   0  0  0  0  0  0  0  0  0  0  0  0
   -1.7171    0.6863    4.7978 H   0  0  0  0  0  0  0  0  0  0  0  0
    0.5096    1.9207    0.8820 Br  0  0  0  0  0  0  0  0  0  0  0  0
  1 68  1  0  0  0  0
  1 15  1  0  0  0  0
  2  4  1  6  0  0  0
  2  5  1  0  0  0  0
  2  3  1  0  0  0  0
  2  1  1  0  0  0  0
  3 37  1  0  0  0  0
  3  9  1  0  0  0  0
  5  8  1  0  0  0  0
  5 53  1  0  0  0  0
  6  4  1  0  0  0  0
  7  5  1  0  0  0  0
 10  3  1  0  0  0  0
 11  4  1  0  0  0  0
 11 17  1  0  0  0  0
 12 11  1  0  0  0  0
 13 11  1  0  0  0  0
 14  1  1  0  0  0  0
 15 16  1  6  0  0  0
 16 55  1  0  0  0  0
 16 61  1  0  0  0  0
 16 58  1  0  0  0  0
 17 18  1  0  0  0  0
 17  1  1  0  0  0  0
 18 21  1  0  0  0  0
 19 18  2  0  0  0  0
 20 54  1  0  0  0  0
 21 22  1  0  0  0  0
 23 24  1  0  0  0  0
 23 29  1  0  0  0  0
 25 23  1  0  0  0  0
 26 29  1  0  0  0  0
 26 34  1  0  0  0  0
 27 26  1  0  0  0  0
 28 26  1  0  0  0  0
 29 21  1  0  0  0  0
 29 36  1  0  0  0  0
 32 36  1  0  0  0  0
 33  4  1  0  0  0  0
 35 23  1  0  0  0  0
 36 31  1  0  0  0  0
 36 30  1  0  0  0  0
 37 14  1  0  0  0  0
 38 37  2  0  0  0  0
 39 14  1  0  0  0  0
 39 43  1  0  0  0  0
 40 48  1  0  0  0  0
 40 39  1  0  0  0  0
 41 40  1  0  0  0  0
 42 40  1  0  0  0  0
 43 45  1  0  0  0  0
 43 44  1  0  0  0  0
 46 39  1  0  0  0  0
 47 43  1  0  0  0  0
 47 50  1  0  0  0  0
 48 52  1  0  0  0  0
 48 47  1  0  0  0  0
 49 47  1  0  0  0  0
 51 48  1  0  0  0  0
 53 54  1  6  0  0  0
 53 15  1  0  0  0  0
 55 57  1  0  0  0  0
 55 62  1  0  0  0  0
 56 55  1  0  0  0  0
 58 59  1  0  0  0  0
 58 63  1  0  0  0  0
 60 58  1  0  0  0  0
 62 63  1  0  0  0  0
 62 67  1  0  0  0  0
 63 64  1  0  0  0  0
 63 65  1  0  0  0  0
 66 62  1  0  0  0  0
M  END
$$$$
