G:\CZW\XYZ\0151-6FeH1CYPOHK.xyz
 OpenBabel02052522393D

 69 73  0  0  1  0  0  0  0  0999 V2000
    0.7815   -0.2564   -0.0656 Fe  0  0  0  0  0  0  0  0  0  0  0  0
    1.3000   -2.2804   -0.9872 N   0  0  2  0  0  4  0  0  0  0  0  0
    2.7121   -2.4837   -0.6393 C   0  0  0  0  0  0  0  0  0  0  0  0
    1.0801   -1.9836   -2.4167 C   0  0  0  0  0  0  0  0  0  0  0  0
    0.3786   -3.2809   -0.4310 C   0  0  0  0  0  0  0  0  0  0  0  0
    1.8526   -1.2687   -2.7112 H   0  0  0  0  0  0  0  0  0  0  0  0
   -0.3006   -3.6539   -1.2030 H   0  0  0  0  0  0  0  0  0  0  0  0
    0.9242   -4.1581   -0.0616 H   0  0  0  0  0  0  0  0  0  0  0  0
    2.7541   -2.8929    0.3751 H   0  0  0  0  0  0  0  0  0  0  0  0
    3.2132   -3.1907   -1.3147 H   0  0  0  0  0  0  0  0  0  0  0  0
   -0.2964   -1.3514   -2.6216 C   0  0  0  0  0  0  0  0  0  0  0  0
   -1.0810   -2.1222   -2.5526 H   0  0  0  0  0  0  0  0  0  0  0  0
   -0.3650   -0.9678   -3.6486 H   0  0  0  0  0  0  0  0  0  0  0  0
    2.7238   -0.0589   -0.4616 N   0  0  0  0  0  0  0  0  0  0  0  0
   -0.0052   -1.5980    1.2804 N   0  0  1  0  0  0  0  0  0  0  0  0
   -0.6230   -1.1794    2.5429 C   0  0  0  0  0  0  0  0  0  0  0  0
   -0.4967   -0.2861   -1.6428 N   0  0  0  0  0  0  0  0  0  0  0  0
   -1.7380    0.3005   -1.6972 C   0  0  0  0  0  0  0  0  0  0  0  0
   -2.6888   -0.1742   -2.3735 O   0  0  0  0  0  0  0  0  0  0  0  0
   -3.2087   -1.7872   -0.2059 K   0  0  0  0  0  0  0  0  0  0  0  0
   -1.9128    1.3898   -0.8826 N   0  0  0  0  0  0  0  0  0  0  0  0
   -1.0913    1.6900   -0.3512 H   0  0  0  0  0  0  0  0  0  0  0  0
   -3.2803    2.8905   -2.2982 C   0  0  0  0  0  0  0  0  0  0  0  0
   -2.3881    3.4495   -2.6019 H   0  0  0  0  0  0  0  0  0  0  0  0
   -3.4560    2.0937   -3.0251 H   0  0  0  0  0  0  0  0  0  0  0  0
   -4.3567    1.5535   -0.4490 C   0  0  0  0  0  0  0  0  0  0  0  0
   -5.2031    2.2476   -0.3994 H   0  0  0  0  0  0  0  0  0  0  0  0
   -4.6031    0.7668   -1.1678 H   0  0  0  0  0  0  0  0  0  0  0  0
   -3.0759    2.2901   -0.8945 C   0  0  0  0  0  0  0  0  0  0  0  0
   -2.5956    2.9886    1.1189 H   0  0  0  0  0  0  0  0  0  0  0  0
   -1.8568    3.9512   -0.1758 H   0  0  0  0  0  0  0  0  0  0  0  0
   -3.5891    4.1170    0.1685 H   0  0  0  0  0  0  0  0  0  0  0  0
    1.1903   -2.8885   -3.0354 H   0  0  0  0  0  0  0  0  0  0  0  0
   -4.2194    1.1262    0.5540 H   0  0  0  0  0  0  0  0  0  0  0  0
   -4.1364    3.5758   -2.3058 H   0  0  0  0  0  0  0  0  0  0  0  0
   -2.7600    3.4036    0.1177 C   0  0  0  0  0  0  0  0  0  0  0  0
    3.4991   -1.1670   -0.6326 C   0  0  0  0  0  0  0  0  0  0  0  0
    4.7247   -1.2030   -0.7533 O   0  0  0  0  0  0  0  0  0  0  0  0
    3.4284    1.2232   -0.4936 C   0  0  0  0  0  0  0  0  0  0  0  0
    2.6618    2.3490   -1.2572 C   0  0  0  0  0  0  0  0  0  0  0  0
    1.6205    2.0657   -1.4362 H   0  0  0  0  0  0  0  0  0  0  0  0
    3.1204    2.5116   -2.2387 H   0  0  0  0  0  0  0  0  0  0  0  0
    3.7335    1.8106    0.9035 C   0  0  0  0  0  0  0  0  0  0  0  0
    2.8843    1.6251    1.5764 H   0  0  0  0  0  0  0  0  0  0  0  0
    4.6107    1.3387    1.3571 H   0  0  0  0  0  0  0  0  0  0  0  0
    4.3884    1.0489   -0.9894 H   0  0  0  0  0  0  0  0  0  0  0  0
    3.8935    3.3131    0.6359 C   0  0  0  0  0  0  0  0  0  0  0  0
    2.7637    3.6170   -0.3705 C   0  0  0  0  0  0  0  0  0  0  0  0
    4.8697    3.5023    0.1697 H   0  0  0  0  0  0  0  0  0  0  0  0
    3.8397    3.9274    1.5417 H   0  0  0  0  0  0  0  0  0  0  0  0
    2.9418    4.5297   -0.9489 H   0  0  0  0  0  0  0  0  0  0  0  0
    1.8201    3.7737    0.1717 H   0  0  0  0  0  0  0  0  0  0  0  0
   -0.4577   -2.7344    0.7325 C   0  0  1  0  0  3  0  0  0  0  0  0
   -1.4821   -3.3773    1.0686 O   0  0  0  0  0  0  0  0  0  0  0  0
   -1.8296   -0.1897    2.4102 C   0  0  0  0  0  0  0  0  0  0  0  0
   -1.8970    0.2008    1.3906 H   0  0  0  0  0  0  0  0  0  0  0  0
   -2.7683   -0.7063    2.6606 H   0  0  0  0  0  0  0  0  0  0  0  0
    0.3812   -0.4563    3.4627 C   0  0  0  0  0  0  0  0  0  0  0  0
    1.0263   -1.1597    4.0001 H   0  0  0  0  0  0  0  0  0  0  0  0
    1.0150    0.1912    2.8481 H   0  0  0  0  0  0  0  0  0  0  0  0
   -0.9805   -2.0844    3.0471 H   0  0  0  0  0  0  0  0  0  0  0  0
   -1.5541    0.9679    3.3988 C   0  0  0  0  0  0  0  0  0  0  0  0
   -0.5047    0.4022    4.3748 C   0  0  0  0  0  0  0  0  0  0  0  0
    0.0518    1.1841    4.9035 H   0  0  0  0  0  0  0  0  0  0  0  0
   -0.9897   -0.2266    5.1348 H   0  0  0  0  0  0  0  0  0  0  0  0
   -1.1127    1.7986    2.8393 H   0  0  0  0  0  0  0  0  0  0  0  0
   -2.4584    1.3315    3.8996 H   0  0  0  0  0  0  0  0  0  0  0  0
    0.3213    1.3745    0.7637 O   0  0  0  0  0  0  0  0  0  0  0  0
    1.0163    2.0123    0.9744 H   0  0  0  0  0  0  0  0  0  0  0  0
  1 68  1  0  0  0  0
  1 15  1  0  0  0  0
  2  4  1  6  0  0  0
  2  3  1  0  0  0  0
  2  5  1  0  0  0  0
  2  1  1  0  0  0  0
  3 37  1  0  0  0  0
  3  9  1  0  0  0  0
  5  8  1  0  0  0  0
  5 53  1  0  0  0  0
  6  4  1  0  0  0  0
  7  5  1  0  0  0  0
 10  3  1  0  0  0  0
 11 12  1  0  0  0  0
 11  4  1  0  0  0  0
 11 17  1  0  0  0  0
 13 11  1  0  0  0  0
 14  1  1  0  0  0  0
 15 16  1  6  0  0  0
 16 61  1  0  0  0  0
 16 58  1  0  0  0  0
 17  1  1  0  0  0  0
 18 17  1  0  0  0  0
 18 21  1  0  0  0  0
 19 18  2  0  0  0  0
 20 54  1  0  0  0  0
 21 22  1  0  0  0  0
 23 29  1  0  0  0  0
 24 23  1  0  0  0  0
 25 23  1  0  0  0  0
 26 27  1  0  0  0  0
 26 34  1  0  0  0  0
 28 26  1  0  0  0  0
 29 21  1  0  0  0  0
 29 26  1  0  0  0  0
 29 36  1  0  0  0  0
 31 36  1  0  0  0  0
 33  4  1  0  0  0  0
 35 23  1  0  0  0  0
 36 32  1  0  0  0  0
 36 30  1  0  0  0  0
 37 14  1  0  0  0  0
 38 37  2  0  0  0  0
 39 14  1  0  0  0  0
 39 43  1  0  0  0  0
 40 39  1  0  0  0  0
 40 48  1  0  0  0  0
 41 40  1  0  0  0  0
 42 40  1  0  0  0  0
 43 45  1  0  0  0  0
 43 44  1  0  0  0  0
 46 39  1  0  0  0  0
 47 43  1  0  0  0  0
 47 50  1  0  0  0  0
 48 52  1  0  0  0  0
 48 47  1  0  0  0  0
 49 47  1  0  0  0  0
 51 48  1  0  0  0  0
 53 54  1  6  0  0  0
 53 15  1  0  0  0  0
 55 16  1  0  0  0  0
 55 57  1  0  0  0  0
 55 62  1  0  0  0  0
 56 55  1  0  0  0  0
 58 59  1  0  0  0  0
 58 63  1  0  0  0  0
 60 58  1  0  0  0  0
 62 67  1  0  0  0  0
 62 63  1  0  0  0  0
 63 64  1  0  0  0  0
 63 65  1  0  0  0  0
 66 62  1  0  0  0  0
 68 69  1  0  0  0  0
M  END
$$$$
