
 OpenBabel02052520083D

 34 36  0  0  0  0  0  0  0  0999 V2000
   -0.1264    2.3744    1.2009 C   0  0  0  0  0  0  0  0  0  0  0  0
    0.4808    1.2979    2.1043 C   0  0  0  0  0  0  0  0  0  0  0  0
   -2.5898   -1.4256   -1.1462 C   0  0  0  0  0  0  0  0  0  0  0  0
   -2.0035   -1.3573    1.1612 C   0  0  0  0  0  0  0  0  0  0  0  0
    2.6115   -1.3539   -1.1829 C   0  0  0  0  0  0  0  0  0  0  0  0
    0.9517   -1.1222    2.0687 C   0  0  0  0  0  0  0  0  0  0  0  0
    2.1663   -1.1217    1.1388 C   0  0  0  0  0  0  0  0  0  0  0  0
   -0.0568    2.9466   -1.1153 C   0  0  0  0  0  0  0  0  0  0  0  0
   -1.3769   -0.3252    2.1016 C   0  0  0  0  0  0  0  0  0  0  0  0
   -0.0019    0.0118   -0.6517 Fe  0  0  0  0  0  0  0  0  0  0  0  0
    0.3883    3.3292    1.3692 H   0  0  0  0  0  0  0  0  0  0  0  0
   -1.1824    2.5521    1.4608 H   0  0  0  0  0  0  0  0  0  0  0  0
    0.2688    1.5034    3.1693 H   0  0  0  0  0  0  0  0  0  0  0  0
    1.5657    1.3147    1.9714 H   0  0  0  0  0  0  0  0  0  0  0  0
   -3.0867   -1.4028    1.3317 H   0  0  0  0  0  0  0  0  0  0  0  0
   -1.6206   -2.3671    1.3807 H   0  0  0  0  0  0  0  0  0  0  0  0
   -1.4438   -0.6493    3.1561 H   0  0  0  0  0  0  0  0  0  0  0  0
   -1.9371    0.6084    2.0037 H   0  0  0  0  0  0  0  0  0  0  0  0
    2.7307   -2.0540    1.2728 H   0  0  0  0  0  0  0  0  0  0  0  0
    2.8634   -0.3109    1.4050 H   0  0  0  0  0  0  0  0  0  0  0  0
    1.2593   -1.0572    3.1282 H   0  0  0  0  0  0  0  0  0  0  0  0
    0.4204   -2.0682    1.9351 H   0  0  0  0  0  0  0  0  0  0  0  0
   -0.0032    1.9582   -0.1880 N   0  0  0  0  0  0  0  0  0  0  0  0
    0.0150   -0.0438    1.7184 N   0  0  1  0  0  0  0  0  0  0  0  0
    1.7163   -0.9770   -0.2384 N   0  0  0  0  0  0  0  0  0  0  0  0
   -1.7115   -0.9827   -0.2150 N   0  0  0  0  0  0  0  0  0  0  0  0
    3.7372   -1.8269   -0.9878 O   0  0  0  0  0  0  0  0  0  0  0  0
   -0.1850    4.1559   -0.8917 O   0  0  0  0  0  0  0  0  0  0  0  0
   -3.5953   -2.1183   -0.9500 O   0  5  0  0  0  0  0  0  0  0  0  0
   -0.0210    0.0041   -2.5090 O   0  0  0  0  0  0  0  0  0  0  0  0
    0.0320    2.5523   -2.1450 H   0  0  0  0  0  0  0  0  0  0  0  0
   -2.3146   -1.0843   -2.1630 H   0  0  0  0  0  0  0  0  0  0  0  0
    2.2243   -1.1886   -2.2067 H   0  0  0  0  0  0  0  0  0  0  0  0
   -0.0649   -0.8623   -2.9416 H   0  0  0  0  0  0  0  0  0  0  0  0
  1 11  1  0  0  0  0
  1 12  1  0  0  0  0
  1  2  1  0  0  0  0
  2 13  1  0  0  0  0
  3 29  1  0  0  0  0
  3 26  2  0  0  0  0
  4 15  1  0  0  0  0
  4 16  1  0  0  0  0
  4  9  1  0  0  0  0
  5 27  2  0  0  0  0
  5 25  1  0  0  0  0
  6 21  1  0  0  0  0
  7 19  1  0  0  0  0
  7 20  1  0  0  0  0
  7  6  1  0  0  0  0
  8 28  2  0  0  0  0
  8 23  1  0  0  0  0
  9 17  1  0  0  0  0
 10 25  1  0  0  0  0
 10 23  1  0  0  0  0
 14  2  1  0  0  0  0
 18  9  1  0  0  0  0
 22  6  1  0  0  0  0
 23  1  1  0  0  0  0
 24  6  1  1  0  0  0
 24  9  1  0  0  0  0
 24  2  1  0  0  0  0
 24 10  9  0  0  0  0
 25  7  1  0  0  0  0
 26  4  1  0  0  0  0
 26 10  9  0  0  0  0
 30 10  1  0  0  0  0
 31  8  1  0  0  0  0
 32  3  1  0  0  0  0
 33  5  1  0  0  0  0
 34 30  1  0  0  0  0
M  CHG  1  29  -1
M  END
$$$$
