
 OpenBabel02052520083D

 49 51  0  0  0  0  0  0  0  0999 V2000
   -1.4975    2.2159   -0.1749 C   0  0  0  0  0  0  0  0  0  0  0  0
   -4.0266   -1.4778   -1.8793 C   0  0  0  0  0  0  0  0  0  0  0  0
   -3.1121   -1.3933    1.8605 C   0  0  0  0  0  0  0  0  0  0  0  0
   -0.1326    2.8869   -0.2935 C   0  0  0  0  0  0  0  0  0  0  0  0
   -0.8474   -0.5332    2.2225 C   0  0  0  0  0  0  0  0  0  0  0  0
    3.4892   -2.8321    0.3857 C   0  0  0  0  0  0  0  0  0  0  0  0
    1.3080    0.5141    2.1447 C   0  0  0  0  0  0  0  0  0  0  0  0
    3.0026   -0.7768   -0.8432 C   0  0  0  0  0  0  0  0  0  0  0  0
    2.2374    2.2064   -0.4140 C   0  0  0  0  0  0  0  0  0  0  0  0
    2.3054    1.3426   -1.6829 C   0  0  0  0  0  0  0  0  0  0  0  0
   -2.7160    0.4385   -1.1626 C   0  0  0  0  0  0  0  0  0  0  0  0
    0.9887    1.9527    1.7082 C   0  0  0  0  0  0  0  0  0  0  0  0
    0.1837   -0.1740   -0.4178 Fe  0  0  0  0  0  0  0  0  0  0  0  0
   -2.2561    2.8503   -0.6476 H   0  0  0  0  0  0  0  0  0  0  0  0
   -1.7880    2.1253    0.8835 H   0  0  0  0  0  0  0  0  0  0  0  0
   -0.1326    3.8708    0.2091 H   0  0  0  0  0  0  0  0  0  0  0  0
    0.0777    3.0538   -1.3552 H   0  0  0  0  0  0  0  0  0  0  0  0
   -1.3477   -1.9641    0.8471 H   0  0  0  0  0  0  0  0  0  0  0  0
    1.2797    0.4581    3.2397 H   0  0  0  0  0  0  0  0  0  0  0  0
    2.3127    0.2329    1.8052 H   0  0  0  0  0  0  0  0  0  0  0  0
    1.7191    2.6785    2.1048 H   0  0  0  0  0  0  0  0  0  0  0  0
    0.0061    2.2001    2.1145 H   0  0  0  0  0  0  0  0  0  0  0  0
    3.3128    1.4056   -2.1111 H   0  0  0  0  0  0  0  0  0  0  0  0
    1.5863    1.7083   -2.4272 H   0  0  0  0  0  0  0  0  0  0  0  0
    2.4292    3.2738   -0.6215 H   0  0  0  0  0  0  0  0  0  0  0  0
    1.6841   -2.3129   -0.5596 H   0  0  0  0  0  0  0  0  0  0  0  0
    3.0181    1.8451    0.2593 H   0  0  0  0  0  0  0  0  0  0  0  0
   -1.9354   -1.4039   -1.5715 H   0  0  0  0  0  0  0  0  0  0  0  0
   -2.7471   -0.8118   -1.7607 N   0  0  0  0  0  0  0  0  0  0  0  0
   -1.4589    0.8995   -0.8103 N   0  0  0  0  0  0  0  0  0  0  0  0
    0.9286    2.0187    0.2353 N   0  0  1  0  0  0  0  0  0  0  0  0
   -1.6741   -1.5213    1.7004 N   0  0  0  0  0  0  0  0  0  0  0  0
    2.6812   -2.1031   -0.5715 N   0  0  0  0  0  0  0  0  0  0  0  0
    1.9551   -0.0320   -1.3506 N   0  0  0  0  0  0  0  0  0  0  0  0
    0.3537   -0.4142    1.5513 N   0  0  0  0  0  0  0  0  0  0  0  0
    4.1505   -0.3404   -0.6508 O   0  0  0  0  0  0  0  0  0  0  0  0
   -3.7655    1.0819   -0.9875 O   0  0  0  0  0  0  0  0  0  0  0  0
   -1.1878    0.1466    3.2032 O   0  5  0  0  0  0  0  0  0  0  0  0
   -0.2754   -1.9829   -0.9977 O   0  0  0  0  0  0  0  0  0  0  0  0
    3.3519   -3.9099    0.2398 H   0  0  0  0  0  0  0  0  0  0  0  0
    3.2319   -2.5880    1.4296 H   0  0  0  0  0  0  0  0  0  0  0  0
    4.5386   -2.5789    0.2227 H   0  0  0  0  0  0  0  0  0  0  0  0
   -3.5478   -0.6267    1.2021 H   0  0  0  0  0  0  0  0  0  0  0  0
   -3.3235   -1.1177    2.8960 H   0  0  0  0  0  0  0  0  0  0  0  0
   -3.5888   -2.3556    1.6426 H   0  0  0  0  0  0  0  0  0  0  0  0
   -4.4441   -1.7966   -0.9093 H   0  0  0  0  0  0  0  0  0  0  0  0
   -3.9099   -2.3637   -2.5142 H   0  0  0  0  0  0  0  0  0  0  0  0
   -4.7514   -0.8010   -2.3387 H   0  0  0  0  0  0  0  0  0  0  0  0
    0.0618   -2.1161   -1.8995 H   0  0  0  0  0  0  0  0  0  0  0  0
  1 15  1  0  0  0  0
  2 29  1  0  0  0  0
  2 46  1  0  0  0  0
  3 44  1  0  0  0  0
  4  1  1  0  0  0  0
  4 16  1  0  0  0  0
  4 31  1  0  0  0  0
  5 38  1  0  0  0  0
  6 41  1  0  0  0  0
  7 19  1  0  0  0  0
  8 36  2  0  0  0  0
  8 33  1  0  0  0  0
  9 27  1  0  0  0  0
 10 34  1  0  0  0  0
 10  9  1  0  0  0  0
 11 37  2  0  0  0  0
 11 30  1  0  0  0  0
 12 21  1  0  0  0  0
 12 22  1  0  0  0  0
 12  7  1  0  0  0  0
 14  1  1  0  0  0  0
 17  4  1  0  0  0  0
 18 32  1  0  0  0  0
 20  7  1  0  0  0  0
 23 10  1  0  0  0  0
 24 10  1  0  0  0  0
 25  9  1  0  0  0  0
 29 28  1  0  0  0  0
 29 11  1  0  0  0  0
 30 13  1  0  0  0  0
 30  1  1  0  0  0  0
 31  9  1  6  0  0  0
 31 12  1  0  0  0  0
 31 13  9  0  0  0  0
 32  3  1  0  0  0  0
 32  5  1  0  0  0  0
 33 26  1  0  0  0  0
 33  6  1  0  0  0  0
 34  8  1  0  0  0  0
 34 13  1  0  0  0  0
 35  7  1  0  0  0  0
 35  5  2  0  0  0  0
 35 13  9  0  0  0  0
 39 13  1  0  0  0  0
 40  6  1  0  0  0  0
 42  6  1  0  0  0  0
 43  3  1  0  0  0  0
 45  3  1  0  0  0  0
 47  2  1  0  0  0  0
 48  2  1  0  0  0  0
 49 39  1  0  0  0  0
M  CHG  1  38  -1
M  END
$$$$
