
 OpenBabel02052520083D

 48 50  0  0  0  0  0  0  0  0999 V2000
    2.2638    0.3452    1.1992 C   0  0  0  0  0  0  0  0  0  0  0  0
    4.3823   -2.5195   -1.1831 C   0  0  0  0  0  0  0  0  0  0  0  0
    1.3147    4.2262   -0.9177 C   0  0  0  0  0  0  0  0  0  0  0  0
    1.6462   -0.5576    2.2885 C   0  0  0  0  0  0  0  0  0  0  0  0
   -0.0936    2.7918    0.5029 C   0  0  0  0  0  0  0  0  0  0  0  0
   -4.6076   -0.6870   -1.2652 C   0  0  0  0  0  0  0  0  0  0  0  0
   -1.4464    1.2580    1.7459 C   0  0  0  0  0  0  0  0  0  0  0  0
   -2.6093   -1.5508   -0.1335 C   0  0  0  0  0  0  0  0  0  0  0  0
   -0.5080   -1.8160    2.2273 C   0  0  0  0  0  0  0  0  0  0  0  0
   -0.5972   -2.4366    0.8188 C   0  0  0  0  0  0  0  0  0  0  0  0
    2.3951   -1.1689   -0.7332 C   0  0  0  0  0  0  0  0  0  0  0  0
   -0.4806    0.6198    2.7634 C   0  0  0  0  0  0  0  0  0  0  0  0
   -0.1152    0.0349   -0.5380 Fe  0  0  0  0  0  0  0  0  0  0  0  0
    3.3597    0.3592    1.3163 H   0  0  0  0  0  0  0  0  0  0  0  0
    1.9262    1.3750    1.3472 H   0  0  0  0  0  0  0  0  0  0  0  0
    2.0042   -0.2513    3.2902 H   0  0  0  0  0  0  0  0  0  0  0  0
    1.9957   -1.5810    2.1117 H   0  0  0  0  0  0  0  0  0  0  0  0
    0.0664    2.6229   -1.5360 H   0  0  0  0  0  0  0  0  0  0  0  0
   -1.8852    2.1579    2.1961 H   0  0  0  0  0  0  0  0  0  0  0  0
   -2.2542    0.5563    1.5149 H   0  0  0  0  0  0  0  0  0  0  0  0
   -1.0257    0.3572    3.6883 H   0  0  0  0  0  0  0  0  0  0  0  0
    0.2643    1.3776    3.0188 H   0  0  0  0  0  0  0  0  0  0  0  0
   -1.1663   -3.3725    0.8713 H   0  0  0  0  0  0  0  0  0  0  0  0
    0.4047   -2.6587    0.4360 H   0  0  0  0  0  0  0  0  0  0  0  0
   -0.0354   -2.5246    2.9319 H   0  0  0  0  0  0  0  0  0  0  0  0
   -2.5822   -0.2884   -1.7581 H   0  0  0  0  0  0  0  0  0  0  0  0
   -1.5331   -1.6439    2.5688 H   0  0  0  0  0  0  0  0  0  0  0  0
    4.2704   -0.8014    0.0002 H   0  0  0  0  0  0  0  0  0  0  0  0
    3.6895   -1.5540   -0.3460 N   0  0  0  0  0  0  0  0  0  0  0  0
    1.8232   -0.0964   -0.1149 N   0  0  0  0  0  0  0  0  0  0  0  0
    0.1964   -0.5399    2.1976 N   0  0  1  0  0  0  0  0  0  0  0  0
    0.2872    3.2265   -0.7502 N   0  0  0  0  0  0  0  0  0  0  0  0
   -3.1821   -0.6839   -1.0417 N   0  0  0  0  0  0  0  0  0  0  0  0
   -1.2291   -1.5033   -0.1037 N   0  0  0  0  0  0  0  0  0  0  0  0
   -0.7714    1.5876    0.4963 N   0  0  0  0  0  0  0  0  0  0  0  0
   -3.3050   -2.2711    0.6013 O   0  0  0  0  0  0  0  0  0  0  0  0
    1.7922   -1.8236   -1.5975 O   0  0  0  0  0  0  0  0  0  0  0  0
    0.1631    3.4490    1.5279 O   0  5  0  0  0  0  0  0  0  0  0  0
   -4.9371   -1.4832   -1.9536 H   0  0  0  0  0  0  0  0  0  0  0  0
   -4.9123    0.2793   -1.6825 H   0  0  0  0  0  0  0  0  0  0  0  0
   -5.1152   -0.8449   -0.3106 H   0  0  0  0  0  0  0  0  0  0  0  0
    2.3106    3.7831   -1.0841 H   0  0  0  0  0  0  0  0  0  0  0  0
    1.3507    4.8293   -0.0080 H   0  0  0  0  0  0  0  0  0  0  0  0
    1.0833    4.8766   -1.7704 H   0  0  0  0  0  0  0  0  0  0  0  0
    5.2868   -2.8606   -0.6660 H   0  0  0  0  0  0  0  0  0  0  0  0
    4.6632   -2.1196   -2.1700 H   0  0  0  0  0  0  0  0  0  0  0  0
    3.7207   -3.3707   -1.3523 H   0  0  0  0  0  0  0  0  0  0  0  0
   -0.5365    0.6708   -2.7946 Cl  0  0  0  0  0  0  0  0  0  0  0  0
  1 14  1  0  0  0  0
  1 15  1  0  0  0  0
  1  4  1  0  0  0  0
  2 45  1  0  0  0  0
  2 29  1  0  0  0  0
  3 32  1  0  0  0  0
  3 43  1  0  0  0  0
  4 16  1  0  0  0  0
  5 38  1  0  0  0  0
  6 33  1  0  0  0  0
  6 41  1  0  0  0  0
  7 19  1  0  0  0  0
  7 12  1  0  0  0  0
  8 34  1  0  0  0  0
  8 36  2  0  0  0  0
  9 27  1  0  0  0  0
  9 25  1  0  0  0  0
 10 23  1  0  0  0  0
 10  9  1  0  0  0  0
 11 29  1  0  0  0  0
 11 30  1  0  0  0  0
 12 22  1  0  0  0  0
 12 21  1  0  0  0  0
 13 30  1  0  0  0  0
 13 34  1  0  0  0  0
 17  4  1  0  0  0  0
 18 32  1  0  0  0  0
 20  7  1  0  0  0  0
 24 10  1  0  0  0  0
 26 33  1  0  0  0  0
 29 28  1  0  0  0  0
 30  1  1  0  0  0  0
 31  9  1  1  0  0  0
 31  4  1  0  0  0  0
 31 12  1  0  0  0  0
 31 13  9  0  0  0  0
 32  5  1  0  0  0  0
 33  8  1  0  0  0  0
 34 10  1  0  0  0  0
 35  5  2  0  0  0  0
 35  7  1  0  0  0  0
 35 13  9  0  0  0  0
 37 11  2  0  0  0  0
 39  6  1  0  0  0  0
 40  6  1  0  0  0  0
 42  3  1  0  0  0  0
 44  3  1  0  0  0  0
 46  2  1  0  0  0  0
 47  2  1  0  0  0  0
 48 13  1  0  0  0  0
M  CHG  1  38  -1
M  END
$$$$
