
 OpenBabel02052520083D

 35 37  0  0  0  0  0  0  0  0999 V2000
    1.7544   -2.1254   -1.1407 C   0  0  0  0  0  0  0  0  0  0  0  0
    2.6665   -1.4164   -0.1411 C   0  0  0  0  0  0  0  0  0  0  0  0
   -0.5621    2.4814   -1.5960 C   0  0  0  0  0  0  0  0  0  0  0  0
    1.7539    2.0503   -1.2708 C   0  0  0  0  0  0  0  0  0  0  0  0
   -0.5611    0.1431    2.9469 C   0  0  0  0  0  0  0  0  0  0  0  0
    2.6665    0.5868    1.2960 C   0  0  0  0  0  0  0  0  0  0  0  0
    1.7550    0.0752    2.4101 C   0  0  0  0  0  0  0  0  0  0  0  0
   -0.5618   -2.6244   -1.3482 C   0  0  0  0  0  0  0  0  0  0  0  0
    2.6654    0.8296   -1.1576 C   0  0  0  0  0  0  0  0  0  0  0  0
   -0.0268   -0.0001   -0.0002 Fe  0  0  0  0  0  0  0  0  0  0  0  0
    1.8975   -3.2106   -1.0669 H   0  0  0  0  0  0  0  0  0  0  0  0
    2.0187   -1.8577   -2.1758 H   0  0  0  0  0  0  0  0  0  0  0  0
    3.7291   -1.5105   -0.4241 H   0  0  0  0  0  0  0  0  0  0  0  0
    2.5365   -1.8861    0.8370 H   0  0  0  0  0  0  0  0  0  0  0  0
    1.8965    2.5290   -2.2475 H   0  0  0  0  0  0  0  0  0  0  0  0
    2.0192    2.8128   -0.5218 H   0  0  0  0  0  0  0  0  0  0  0  0
    3.7283    1.1212   -1.0993 H   0  0  0  0  0  0  0  0  0  0  0  0
    2.5335    0.2175   -2.0532 H   0  0  0  0  0  0  0  0  0  0  0  0
    1.8982    0.6815    3.3131 H   0  0  0  0  0  0  0  0  0  0  0  0
    2.0197   -0.9551    2.6955 H   0  0  0  0  0  0  0  0  0  0  0  0
    3.7292    0.3893    1.5187 H   0  0  0  0  0  0  0  0  0  0  0  0
    2.5360    1.6687    1.2139 H   0  0  0  0  0  0  0  0  0  0  0  0
    0.3714   -1.7661   -0.8549 N   0  0  0  0  0  0  0  0  0  0  0  0
    2.2828    0.0001   -0.0008 N   0  0  1  0  0  0  0  0  0  0  0  0
    0.3717    0.1428    1.9566 N   0  0  0  0  0  0  0  0  0  0  0  0
    0.3708    1.6235   -1.1017 N   0  0  0  0  0  0  0  0  0  0  0  0
   -0.3297    0.0995    4.1583 O   0  0  0  0  0  0  0  0  0  0  0  0
   -0.3311   -3.6521   -1.9912 O   0  0  0  0  0  0  0  0  0  0  0  0
   -0.3308    3.5528   -2.1632 O   0  5  0  0  0  0  0  0  0  0  0  0
   -1.5932   -2.3103   -1.1089 H   0  0  0  0  0  0  0  0  0  0  0  0
   -1.5938    2.1181   -1.4432 H   0  0  0  0  0  0  0  0  0  0  0  0
   -1.5927    0.1924    2.5557 H   0  0  0  0  0  0  0  0  0  0  0  0
   -2.0106   -0.0001    0.0001 N   0  0  0  0  0  0  0  0  0  0  0  0
   -3.2021   -0.0002   -0.0001 C   0  0  0  0  0  0  0  0  0  0  0  0
   -4.8177   -0.0001   -0.0003 S   0  0  0  0  0  0  0  0  0  0  0  0
  1 11  1  0  0  0  0
  1 23  1  0  0  0  0
  1  2  1  0  0  0  0
  2 24  1  0  0  0  0
  2 14  1  0  0  0  0
  3 31  1  0  0  0  0
  3 26  2  0  0  0  0
  4  9  1  0  0  0  0
  4 26  1  0  0  0  0
  4 16  1  0  0  0  0
  5 27  2  0  0  0  0
  6 21  1  0  0  0  0
  6  7  1  0  0  0  0
  7 20  1  0  0  0  0
  7 19  1  0  0  0  0
  8 30  1  0  0  0  0
  8 23  1  0  0  0  0
  9 17  1  0  0  0  0
 10 33  1  0  0  0  0
 10 25  1  0  0  0  0
 12  1  1  0  0  0  0
 13  2  1  0  0  0  0
 15  4  1  0  0  0  0
 18  9  1  0  0  0  0
 22  6  1  0  0  0  0
 23 10  1  0  0  0  0
 24  9  1  6  0  0  0
 24  6  1  0  0  0  0
 24 10  9  0  0  0  0
 25  7  1  0  0  0  0
 25  5  1  0  0  0  0
 26 10  9  0  0  0  0
 28  8  2  0  0  0  0
 29  3  1  0  0  0  0
 32  5  1  0  0  0  0
 34 33  2  0  0  0  0
 35 34  2  0  0  0  0
M  CHG  1  29  -1
M  END
$$$$
