
 OpenBabel02052520083D

 50 52  0  0  0  0  0  0  0  0999 V2000
   -1.2391   -1.2169   -2.6283 C   0  0  0  0  0  0  0  0  0  0  0  0
   -3.5939    2.4227   -0.5111 C   0  0  0  0  0  0  0  0  0  0  0  0
    4.9798    1.3968    1.2653 C   0  0  0  0  0  0  0  0  0  0  0  0
   -0.5783   -2.4848   -2.0869 C   0  0  0  0  0  0  0  0  0  0  0  0
    2.8553    0.4447    0.5317 C   0  0  0  0  0  0  0  0  0  0  0  0
   -2.7847   -1.7688    3.8867 C   0  0  0  0  0  0  0  0  0  0  0  0
    2.8047   -0.9412   -1.4601 C   0  0  0  0  0  0  0  0  0  0  0  0
   -1.3435   -1.2048    1.9909 C   0  0  0  0  0  0  0  0  0  0  0  0
    0.9969   -3.0252   -0.2424 C   0  0  0  0  0  0  0  0  0  0  0  0
   -0.0163   -2.9351    0.9104 C   0  0  0  0  0  0  0  0  0  0  0  0
   -2.3977    0.6419   -1.6989 C   0  0  0  0  0  0  0  0  0  0  0  0
    1.7531   -1.7628   -2.2214 C   0  0  0  0  0  0  0  0  0  0  0  0
    0.1166   -0.1220   -0.1879 Fe  0  0  0  0  0  0  0  0  0  0  0  0
   -2.2220   -1.4652   -3.0493 H   0  0  0  0  0  0  0  0  0  0  0  0
   -0.6606   -0.8008   -3.4699 H   0  0  0  0  0  0  0  0  0  0  0  0
   -0.3554   -3.2099   -2.8906 H   0  0  0  0  0  0  0  0  0  0  0  0
   -1.2711   -2.9568   -1.3866 H   0  0  0  0  0  0  0  0  0  0  0  0
    4.4966    0.7412   -0.6534 H   0  0  0  0  0  0  0  0  0  0  0  0
    3.3671   -0.3556   -2.2128 H   0  0  0  0  0  0  0  0  0  0  0  0
    3.5467   -1.6061   -0.9873 H   0  0  0  0  0  0  0  0  0  0  0  0
    2.2116   -2.6527   -2.6898 H   0  0  0  0  0  0  0  0  0  0  0  0
    1.3360   -1.1484   -3.0229 H   0  0  0  0  0  0  0  0  0  0  0  0
    0.4493   -3.4443    1.7765 H   0  0  0  0  0  0  0  0  0  0  0  0
   -0.9246   -3.5146    0.6719 H   0  0  0  0  0  0  0  0  0  0  0  0
    1.0998   -4.0704   -0.5860 H   0  0  0  0  0  0  0  0  0  0  0  0
   -1.2055   -2.9043    3.1209 H   0  0  0  0  0  0  0  0  0  0  0  0
    1.9648   -2.6939    0.1378 H   0  0  0  0  0  0  0  0  0  0  0  0
   -2.4383    0.8658    0.3393 H   0  0  0  0  0  0  0  0  0  0  0  0
   -2.8871    1.1597   -0.5264 N   0  0  0  0  0  0  0  0  0  0  0  0
   -1.3631   -0.2778   -1.5279 N   0  0  0  0  0  0  0  0  0  0  0  0
    0.6368   -2.1244   -1.3439 N   0  0  1  0  0  0  0  0  0  0  0  0
    4.2434    0.5774    0.3140 N   0  0  0  0  0  0  0  0  0  0  0  0
   -1.8667   -2.1907    2.8412 N   0  0  0  0  0  0  0  0  0  0  0  0
   -0.3299   -1.5473    1.1665 N   0  0  0  0  0  0  0  0  0  0  0  0
    2.1273   -0.1278   -0.4748 N   0  0  0  0  0  0  0  0  0  0  0  0
   -1.8429   -0.0621    1.9936 O   0  0  0  0  0  0  0  0  0  0  0  0
   -2.8739    0.9235   -2.8096 O   0  0  0  0  0  0  0  0  0  0  0  0
    2.3643    0.8006    1.6066 O   0  5  0  0  0  0  0  0  0  0  0  0
   -2.2993   -1.1796    4.6799 H   0  0  0  0  0  0  0  0  0  0  0  0
   -3.2526   -2.6536    4.3340 H   0  0  0  0  0  0  0  0  0  0  0  0
   -3.5564   -1.1414    3.4378 H   0  0  0  0  0  0  0  0  0  0  0  0
    6.0521    1.3200    1.0500 H   0  0  0  0  0  0  0  0  0  0  0  0
    4.7877    1.0225    2.2726 H   0  0  0  0  0  0  0  0  0  0  0  0
    4.6810    2.4554    1.2472 H   0  0  0  0  0  0  0  0  0  0  0  0
   -2.9170    3.2677   -0.3152 H   0  0  0  0  0  0  0  0  0  0  0  0
   -4.3703    2.4122    0.2638 H   0  0  0  0  0  0  0  0  0  0  0  0
   -4.0646    2.5634   -1.4867 H   0  0  0  0  0  0  0  0  0  0  0  0
   -0.0352    1.8424    0.1246 N   0  0  0  0  0  0  0  0  0  0  0  0
   -0.0346    3.0217    0.2373 C   0  0  0  0  0  0  0  0  0  0  0  0
   -0.0474    4.6447    0.3829 S   0  0  0  0  0  0  0  0  0  0  0  0
  1  4  1  0  0  0  0
  1 30  1  0  0  0  0
  2 45  1  0  0  0  0
  2 46  1  0  0  0  0
  3 43  1  0  0  0  0
  4 17  1  0  0  0  0
  4 31  1  0  0  0  0
  5 38  1  0  0  0  0
  6 40  1  0  0  0  0
  6 39  1  0  0  0  0
  7 20  1  0  0  0  0
  7 35  1  0  0  0  0
  8 36  2  0  0  0  0
  8 33  1  0  0  0  0
  9 27  1  0  0  0  0
  9 10  1  0  0  0  0
 10 34  1  0  0  0  0
 10 23  1  0  0  0  0
 11 30  1  0  0  0  0
 11 29  1  0  0  0  0
 12  7  1  0  0  0  0
 13 48  1  0  0  0  0
 13 34  1  0  0  0  0
 14  1  1  0  0  0  0
 15  1  1  0  0  0  0
 16  4  1  0  0  0  0
 18 32  1  0  0  0  0
 19  7  1  0  0  0  0
 21 12  1  0  0  0  0
 22 12  1  0  0  0  0
 24 10  1  0  0  0  0
 25  9  1  0  0  0  0
 29  2  1  0  0  0  0
 29 28  1  0  0  0  0
 30 13  1  0  0  0  0
 31 12  1  6  0  0  0
 31  9  1  0  0  0  0
 31 13  9  0  0  0  0
 32  5  1  0  0  0  0
 32  3  1  0  0  0  0
 33 26  1  0  0  0  0
 33  6  1  0  0  0  0
 34  8  1  0  0  0  0
 35  5  2  0  0  0  0
 35 13  9  0  0  0  0
 37 11  2  0  0  0  0
 41  6  1  0  0  0  0
 42  3  1  0  0  0  0
 44  3  1  0  0  0  0
 47  2  1  0  0  0  0
 48 49  2  0  0  0  0
 49 50  2  0  0  0  0
M  CHG  1  38  -1
M  END
$$$$
