
 OpenBabel02072512503D

 60 67  0  0  0  0  0  0  0  0999 V2000
    0.3744    0.1739    0.6562 Fe  0  2  0  0  0  0  0  0  0  0  0  0
   -1.4947   -0.3558   -0.0497 N   0  0  0  0  0  0  0  0  0  0  0  0
   -2.8840   -0.8943   -1.7026 N   0  0  0  0  0  0  0  0  0  0  0  0
    0.7460   -0.0017   -1.6146 N   0  0  1  0  0  0  0  0  0  0  0  0
    1.0285   -1.8980    0.3401 N   0  0  0  0  0  0  0  0  0  0  0  0
    2.5170    0.5466    0.3825 N   0  0  0  0  0  0  0  0  0  0  0  0
   -0.0282    2.1613   -0.0355 N   0  0  0  0  0  0  0  0  0  0  0  0
   -2.7815   -0.4025    0.4833 C   0  0  0  0  0  0  0  0  0  0  0  0
   -3.2483   -0.1677    1.7799 C   0  0  0  0  0  0  0  0  0  0  0  0
   -4.6172   -0.2972    1.9928 C   0  0  0  0  0  0  0  0  0  0  0  0
   -5.4988   -0.6474    0.9477 C   0  0  0  0  0  0  0  0  0  0  0  0
   -5.0439   -0.8795   -0.3481 C   0  0  0  0  0  0  0  0  0  0  0  0
   -3.6700   -0.7472   -0.5535 C   0  0  0  0  0  0  0  0  0  0  0  0
   -3.4089   -1.2771   -3.0124 C   0  0  0  0  0  0  0  0  0  0  0  0
   -1.6024   -0.6479   -1.3449 C   0  0  0  0  0  0  0  0  0  0  0  0
   -0.3936   -0.7292   -2.2360 C   0  0  0  0  0  0  0  0  0  0  0  0
    0.7548   -2.9469    1.1297 C   0  0  0  0  0  0  0  0  0  0  0  0
    1.1900   -4.2347    0.8186 C   0  0  0  0  0  0  0  0  0  0  0  0
    1.9233   -4.4290   -0.3520 C   0  0  0  0  0  0  0  0  0  0  0  0
    2.2008   -3.3330   -1.1775 C   0  0  0  0  0  0  0  0  0  0  0  0
    1.7370   -2.0810   -0.7932 C   0  0  0  0  0  0  0  0  0  0  0  0
    2.0164   -0.7920   -1.5576 C   0  0  2  0  0  0  0  0  0  0  0  0
    3.0286    0.0042   -0.7421 C   0  0  0  0  0  0  0  0  0  0  0  0
    4.3706    0.1308   -1.0773 C   0  0  0  0  0  0  0  0  0  0  0  0
    5.2098    0.8418   -0.2115 C   0  0  0  0  0  0  0  0  0  0  0  0
    4.6773    1.4010    0.9503 C   0  0  0  0  0  0  0  0  0  0  0  0
    3.3183    1.2320    1.2118 C   0  0  0  0  0  0  0  0  0  0  0  0
    0.9095    1.3767   -2.1503 C   0  0  0  0  0  0  0  0  0  0  0  0
    0.1345    2.4072   -1.3519 C   0  0  0  0  0  0  0  0  0  0  0  0
   -0.3213    3.5892   -1.9293 C   0  0  0  0  0  0  0  0  0  0  0  0
   -0.9476    4.5420   -1.1221 C   0  0  0  0  0  0  0  0  0  0  0  0
   -1.1078    4.2820    0.2398 C   0  0  0  0  0  0  0  0  0  0  0  0
   -0.6395    3.0730    0.7431 C   0  0  0  0  0  0  0  0  0  0  0  0
    2.4140   -1.0126   -2.5555 H   0  0  0  0  0  0  0  0  0  0  0  0
    4.7541   -0.3115   -1.9912 H   0  0  0  0  0  0  0  0  0  0  0  0
    6.2634    0.9579   -0.4462 H   0  0  0  0  0  0  0  0  0  0  0  0
    5.2974    1.9585    1.6437 H   0  0  0  0  0  0  0  0  0  0  0  0
    2.7658   -3.4526   -2.0965 H   0  0  0  0  0  0  0  0  0  0  0  0
    2.2745   -5.4196   -0.6243 H   0  0  0  0  0  0  0  0  0  0  0  0
    0.9564   -5.0606    1.4817 H   0  0  0  0  0  0  0  0  0  0  0  0
    0.1750   -2.7349    2.0221 H   0  0  0  0  0  0  0  0  0  0  0  0
   -0.1185   -1.7807   -2.3741 H   0  0  0  0  0  0  0  0  0  0  0  0
   -0.6078   -0.3283   -3.2327 H   0  0  0  0  0  0  0  0  0  0  0  0
    0.6295    1.4211   -3.2088 H   0  0  0  0  0  0  0  0  0  0  0  0
    1.9697    1.6414   -2.0993 H   0  0  0  0  0  0  0  0  0  0  0  0
   -0.1842    3.7650   -2.9918 H   0  0  0  0  0  0  0  0  0  0  0  0
   -1.3080    5.4711   -1.5528 H   0  0  0  0  0  0  0  0  0  0  0  0
   -2.6060   -1.2975   -3.7496 H   0  0  0  0  0  0  0  0  0  0  0  0
   -4.1662   -0.5545   -3.3278 H   0  0  0  0  0  0  0  0  0  0  0  0
   -3.8607   -2.2710   -2.9515 H   0  0  0  0  0  0  0  0  0  0  0  0
   -5.7252   -1.1486   -1.1483 H   0  0  0  0  0  0  0  0  0  0  0  0
   -6.5591   -0.7386    1.1596 H   0  0  0  0  0  0  0  0  0  0  0  0
   -5.0205   -0.1268    2.9859 H   0  0  0  0  0  0  0  0  0  0  0  0
   -2.5661    0.1007    2.5793 H   0  0  0  0  0  0  0  0  0  0  0  0
    2.8466    1.6459    2.0968 H   0  0  0  0  0  0  0  0  0  0  0  0
   -0.7509    2.8020    1.7873 H   0  0  0  0  0  0  0  0  0  0  0  0
   -1.5914    4.9941    0.8994 H   0  0  0  0  0  0  0  0  0  0  0  0
    0.2212    0.3044    2.5004 N   0  0  0  0  0  0  0  0  0  0  0  0
    0.3219    0.2081    3.7056 N   0  3  0  0  0  0  0  0  0  0  0  0
    0.4072    0.1227    4.8464 N   0  5  0  0  0  0  0  0  0  0  0  0
  1 58  1  0  0  0  0
  2  8  1  0  0  0  0
  2  1  9  0  0  0  0
  3 15  1  0  0  0  0
  3 13  1  0  0  0  0
  4 16  1  6  0  0  0
  4 22  1  0  0  0  0
  5 17  1  0  0  0  0
  5  1  9  0  0  0  0
  6 27  1  0  0  0  0
  6  1  9  0  0  0  0
  7 33  1  0  0  0  0
  7  1  9  0  0  0  0
  8  9  1  0  0  0  0
  9 10  2  0  0  0  0
  9 54  1  0  0  0  0
 10 53  1  0  0  0  0
 11 52  1  0  0  0  0
 11 10  1  0  0  0  0
 12 11  2  0  0  0  0
 13 12  1  0  0  0  0
 13  8  2  0  0  0  0
 14 50  1  0  0  0  0
 14  3  1  0  0  0  0
 15  2  2  0  0  0  0
 16 15  1  0  0  0  0
 17 41  1  0  0  0  0
 18 17  2  0  0  0  0
 18 40  1  0  0  0  0
 19 18  1  0  0  0  0
 20 21  1  0  0  0  0
 20 19  2  0  0  0  0
 21  5  2  0  0  0  0
 22 34  1  6  0  0  0
 22 21  1  0  0  0  0
 22 23  1  0  0  0  0
 23  6  2  0  0  0  0
 24 23  1  0  0  0  0
 24 25  2  0  0  0  0
 25 26  1  0  0  0  0
 26 27  2  0  0  0  0
 26 37  1  0  0  0  0
 27 55  1  0  0  0  0
 28 45  1  0  0  0  0
 28  4  1  0  0  0  0
 28 29  1  0  0  0  0
 29  7  2  0  0  0  0
 30 29  1  0  0  0  0
 30 31  2  0  0  0  0
 31 32  1  0  0  0  0
 32 33  2  0  0  0  0
 32 57  1  0  0  0  0
 33 56  1  0  0  0  0
 35 24  1  0  0  0  0
 36 25  1  0  0  0  0
 38 20  1  0  0  0  0
 39 19  1  0  0  0  0
 42 16  1  0  0  0  0
 43 16  1  0  0  0  0
 44 28  1  0  0  0  0
 46 30  1  0  0  0  0
 47 31  1  0  0  0  0
 48 14  1  0  0  0  0
 49 14  1  0  0  0  0
 51 12  1  0  0  0  0
 58 59  2  0  0  0  0
 59 60  2  0  0  0  0
M  CHG  3   1   2  59   1  60  -1
M  END
$$$$
