
 OpenBabel02052520083D

 58 66  0  0  0  0  0  0  0  0999 V2000
    0.3648    0.1597    0.5239 Fe  0  2  0  0  0  0  0  0  0  0  0  0
   -1.5100   -0.3896   -0.1244 N   0  0  0  0  0  0  0  0  0  0  0  0
   -2.8966   -0.9941   -1.7577 N   0  0  0  0  0  0  0  0  0  0  0  0
    0.7283   -0.1109   -1.7149 N   0  0  2  0  0  0  0  0  0  0  0  0
    1.0296   -1.9004    0.3276 N   0  0  0  0  0  0  0  0  0  0  0  0
    2.4973    0.5400    0.2449 N   0  0  0  0  0  0  0  0  0  0  0  0
   -0.0326    2.1215   -0.2254 N   0  0  0  0  0  0  0  0  0  0  0  0
   -2.8025   -0.4011    0.4065 C   0  0  0  0  0  0  0  0  0  0  0  0
   -3.2816   -0.1054    1.6865 C   0  0  0  0  0  0  0  0  0  0  0  0
   -4.6540   -0.2178    1.8905 C   0  0  0  0  0  0  0  0  0  0  0  0
   -5.5291   -0.6092    0.8559 C   0  0  0  0  0  0  0  0  0  0  0  0
   -5.0625   -0.9028   -0.4235 C   0  0  0  0  0  0  0  0  0  0  0  0
   -3.6866   -0.7874   -0.6201 C   0  0  0  0  0  0  0  0  0  0  0  0
   -3.4218   -1.4362   -3.0493 C   0  0  0  0  0  0  0  0  0  0  0  0
   -1.6172   -0.7423   -1.4087 C   0  0  0  0  0  0  0  0  0  0  0  0
   -0.4092   -0.8760   -2.2924 C   0  0  0  0  0  0  0  0  0  0  0  0
    0.7764   -2.9006    1.1858 C   0  0  0  0  0  0  0  0  0  0  0  0
    1.2284   -4.1982    0.9474 C   0  0  0  0  0  0  0  0  0  0  0  0
    1.9560   -4.4537   -0.2148 C   0  0  0  0  0  0  0  0  0  0  0  0
    2.2158   -3.4062   -1.1072 C   0  0  0  0  0  0  0  0  0  0  0  0
    1.7374   -2.1403   -0.7966 C   0  0  0  0  0  0  0  0  0  0  0  0
    2.0053   -0.8911   -1.6269 C   0  0  2  0  0  0  0  0  0  0  0  0
    3.0129   -0.0486   -0.8553 C   0  0  0  0  0  0  0  0  0  0  0  0
    4.3527    0.0732   -1.1976 C   0  0  0  0  0  0  0  0  0  0  0  0
    5.1868    0.8285   -0.3643 C   0  0  0  0  0  0  0  0  0  0  0  0
    4.6508    1.4320    0.7730 C   0  0  0  0  0  0  0  0  0  0  0  0
    3.2935    1.2654    1.0461 C   0  0  0  0  0  0  0  0  0  0  0  0
    0.8816    1.2424   -2.3165 C   0  0  0  0  0  0  0  0  0  0  0  0
    0.1252    2.3114   -1.5529 C   0  0  0  0  0  0  0  0  0  0  0  0
   -0.3164    3.4754   -2.1749 C   0  0  0  0  0  0  0  0  0  0  0  0
   -0.9214    4.4710   -1.4037 C   0  0  0  0  0  0  0  0  0  0  0  0
   -1.0741    4.2700   -0.0315 C   0  0  0  0  0  0  0  0  0  0  0  0
   -0.6225    3.0759    0.5204 C   0  0  0  0  0  0  0  0  0  0  0  0
    2.3959   -1.1560   -2.6164 H   0  0  0  0  0  0  0  0  0  0  0  0
    4.7390   -0.4075   -2.0907 H   0  0  0  0  0  0  0  0  0  0  0  0
    6.2394    0.9418   -0.6045 H   0  0  0  0  0  0  0  0  0  0  0  0
    5.2675    2.0210    1.4431 H   0  0  0  0  0  0  0  0  0  0  0  0
    2.7800   -3.5735   -2.0192 H   0  0  0  0  0  0  0  0  0  0  0  0
    2.3194   -5.4541   -0.4285 H   0  0  0  0  0  0  0  0  0  0  0  0
    1.0134   -4.9845    1.6628 H   0  0  0  0  0  0  0  0  0  0  0  0
    0.2095   -2.6372    2.0723 H   0  0  0  0  0  0  0  0  0  0  0  0
   -0.1312   -1.9333   -2.3642 H   0  0  0  0  0  0  0  0  0  0  0  0
   -0.6219   -0.5366   -3.3116 H   0  0  0  0  0  0  0  0  0  0  0  0
    0.5792    1.2358   -3.3694 H   0  0  0  0  0  0  0  0  0  0  0  0
    1.9433    1.5057   -2.3007 H   0  0  0  0  0  0  0  0  0  0  0  0
   -0.1833    3.6050   -3.2445 H   0  0  0  0  0  0  0  0  0  0  0  0
   -1.2697    5.3874   -1.8701 H   0  0  0  0  0  0  0  0  0  0  0  0
   -2.6195   -1.4924   -3.7851 H   0  0  0  0  0  0  0  0  0  0  0  0
   -4.1777   -0.7270   -3.3962 H   0  0  0  0  0  0  0  0  0  0  0  0
   -3.8757   -2.4251   -2.9411 H   0  0  0  0  0  0  0  0  0  0  0  0
   -5.7367   -1.2054   -1.2178 H   0  0  0  0  0  0  0  0  0  0  0  0
   -6.5919   -0.6848    1.0616 H   0  0  0  0  0  0  0  0  0  0  0  0
   -5.0629   -0.0011    2.8721 H   0  0  0  0  0  0  0  0  0  0  0  0
   -2.6094    0.1902    2.4833 H   0  0  0  0  0  0  0  0  0  0  0  0
    2.8214    1.7038    1.9183 H   0  0  0  0  0  0  0  0  0  0  0  0
   -0.7275    2.8551    1.5765 H   0  0  0  0  0  0  0  0  0  0  0  0
   -1.5390    5.0167    0.6029 H   0  0  0  0  0  0  0  0  0  0  0  0
    0.2428    0.3934    2.9068 Br  0  0  0  0  0  0  0  0  0  0  0  0
  1 58  1  0  0  0  0
  2  8  1  0  0  0  0
  2  1  9  0  0  0  0
  3 15  1  0  0  0  0
  3 13  1  0  0  0  0
  4 28  1  6  0  0  0
  4 22  1  0  0  0  0
  4  1  9  0  0  0  0
  5 17  1  0  0  0  0
  5  1  9  0  0  0  0
  6 27  1  0  0  0  0
  6  1  9  0  0  0  0
  7 33  1  0  0  0  0
  7  1  9  0  0  0  0
  8  9  1  0  0  0  0
  9 10  2  0  0  0  0
  9 54  1  0  0  0  0
 10 53  1  0  0  0  0
 11 52  1  0  0  0  0
 11 10  1  0  0  0  0
 12 11  2  0  0  0  0
 13 12  1  0  0  0  0
 13  8  2  0  0  0  0
 14 50  1  0  0  0  0
 14  3  1  0  0  0  0
 15  2  2  0  0  0  0
 16  4  1  0  0  0  0
 16 15  1  0  0  0  0
 17 41  1  0  0  0  0
 18 17  2  0  0  0  0
 18 40  1  0  0  0  0
 19 18  1  0  0  0  0
 20 21  1  0  0  0  0
 20 19  2  0  0  0  0
 21  5  2  0  0  0  0
 22 34  1  6  0  0  0
 22 23  1  0  0  0  0
 22 21  1  0  0  0  0
 23  6  2  0  0  0  0
 24 23  1  0  0  0  0
 24 25  2  0  0  0  0
 25 26  1  0  0  0  0
 26 27  2  0  0  0  0
 26 37  1  0  0  0  0
 27 55  1  0  0  0  0
 28 45  1  0  0  0  0
 28 29  1  0  0  0  0
 29  7  2  0  0  0  0
 30 29  1  0  0  0  0
 30 31  2  0  0  0  0
 31 32  1  0  0  0  0
 32 33  2  0  0  0  0
 32 57  1  0  0  0  0
 33 56  1  0  0  0  0
 35 24  1  0  0  0  0
 36 25  1  0  0  0  0
 38 20  1  0  0  0  0
 39 19  1  0  0  0  0
 42 16  1  0  0  0  0
 43 16  1  0  0  0  0
 44 28  1  0  0  0  0
 46 30  1  0  0  0  0
 47 31  1  0  0  0  0
 48 14  1  0  0  0  0
 49 14  1  0  0  0  0
 51 12  1  0  0  0  0
M  CHG  1   1   2
M  END
$$$$
