
 OpenBabel02052520083D

 59 67  0  0  0  0  0  0  0  0999 V2000
   -0.3685    0.1691   -0.8843 Fe  0  2  0  0  0  0  0  0  0  0  0  0
    1.4690   -0.3472   -0.1160 N   0  0  0  0  0  0  0  0  0  0  0  0
    2.8447   -0.8524    1.5554 N   0  0  0  0  0  0  0  0  0  0  0  0
   -0.7938    0.0011    1.4119 N   0  0  2  0  0  0  0  0  0  0  0  0
   -1.0132   -1.9056   -0.5511 N   0  0  0  0  0  0  0  0  0  0  0  0
   -2.5123    0.5177   -0.6463 N   0  0  0  0  0  0  0  0  0  0  0  0
   -0.0171    2.1494   -0.1819 N   0  0  0  0  0  0  0  0  0  0  0  0
    2.7599   -0.3826   -0.6367 C   0  0  0  0  0  0  0  0  0  0  0  0
    3.2285   -0.1534   -1.9333 C   0  0  0  0  0  0  0  0  0  0  0  0
    4.6011   -0.2658   -2.1330 C   0  0  0  0  0  0  0  0  0  0  0  0
    5.4788   -0.5942   -1.0771 C   0  0  0  0  0  0  0  0  0  0  0  0
    5.0185   -0.8212    0.2183 C   0  0  0  0  0  0  0  0  0  0  0  0
    3.6414   -0.7060    0.4123 C   0  0  0  0  0  0  0  0  0  0  0  0
    3.3604   -1.2148    2.8744 C   0  0  0  0  0  0  0  0  0  0  0  0
    1.5636   -0.6256    1.1829 C   0  0  0  0  0  0  0  0  0  0  0  0
    0.3412   -0.7120    2.0565 C   0  0  0  0  0  0  0  0  0  0  0  0
   -0.7014   -2.9570   -1.3229 C   0  0  0  0  0  0  0  0  0  0  0  0
   -1.1205   -4.2492   -1.0084 C   0  0  0  0  0  0  0  0  0  0  0  0
   -1.8776   -4.4445    0.1469 C   0  0  0  0  0  0  0  0  0  0  0  0
   -2.1928   -3.3454    0.9547 C   0  0  0  0  0  0  0  0  0  0  0  0
   -1.7429   -2.0888    0.5688 C   0  0  0  0  0  0  0  0  0  0  0  0
   -2.0549   -0.7987    1.3199 C   0  0  2  0  0  0  0  0  0  0  0  0
   -3.0491   -0.0127    0.4720 C   0  0  0  0  0  0  0  0  0  0  0  0
   -4.3980    0.1220    0.7746 C   0  0  0  0  0  0  0  0  0  0  0  0
   -5.2141    0.8280   -0.1174 C   0  0  0  0  0  0  0  0  0  0  0  0
   -4.6537    1.3747   -1.2721 C   0  0  0  0  0  0  0  0  0  0  0  0
   -3.2898    1.1984   -1.5016 C   0  0  0  0  0  0  0  0  0  0  0  0
   -0.9775    1.3831    1.9295 C   0  0  0  0  0  0  0  0  0  0  0  0
   -0.2073    2.4149    1.1260 C   0  0  0  0  0  0  0  0  0  0  0  0
    0.2174    3.6167    1.6854 C   0  0  0  0  0  0  0  0  0  0  0  0
    0.8391    4.5635    0.8669 C   0  0  0  0  0  0  0  0  0  0  0  0
    1.0259    4.2802   -0.4871 C   0  0  0  0  0  0  0  0  0  0  0  0
    0.5885    3.0530   -0.9745 C   0  0  0  0  0  0  0  0  0  0  0  0
   -2.4824   -1.0210    2.3051 H   0  0  0  0  0  0  0  0  0  0  0  0
   -4.8042   -0.3094    1.6839 H   0  0  0  0  0  0  0  0  0  0  0  0
   -6.2722    0.9504    0.0924 H   0  0  0  0  0  0  0  0  0  0  0  0
   -5.2564    1.9284   -1.9837 H   0  0  0  0  0  0  0  0  0  0  0  0
   -2.7751   -3.4665    1.8627 H   0  0  0  0  0  0  0  0  0  0  0  0
   -2.2172   -5.4383    0.4217 H   0  0  0  0  0  0  0  0  0  0  0  0
   -0.8560   -5.0778   -1.6563 H   0  0  0  0  0  0  0  0  0  0  0  0
   -0.1026   -2.7424   -2.2022 H   0  0  0  0  0  0  0  0  0  0  0  0
    0.0737   -1.7650    2.1980 H   0  0  0  0  0  0  0  0  0  0  0  0
    0.5367   -0.3028    3.0537 H   0  0  0  0  0  0  0  0  0  0  0  0
   -0.7071    1.4439    2.9897 H   0  0  0  0  0  0  0  0  0  0  0  0
   -2.0402    1.6357    1.8673 H   0  0  0  0  0  0  0  0  0  0  0  0
    0.0605    3.8125    2.7416 H   0  0  0  0  0  0  0  0  0  0  0  0
    1.1757    5.5077    1.2839 H   0  0  0  0  0  0  0  0  0  0  0  0
    2.5505   -1.2330    3.6041 H   0  0  0  0  0  0  0  0  0  0  0  0
    4.1083   -0.4818    3.1879 H   0  0  0  0  0  0  0  0  0  0  0  0
    3.8215   -2.2054    2.8300 H   0  0  0  0  0  0  0  0  0  0  0  0
    5.6984   -1.0733    1.0253 H   0  0  0  0  0  0  0  0  0  0  0  0
    6.5420   -0.6724   -1.2799 H   0  0  0  0  0  0  0  0  0  0  0  0
    5.0111   -0.0992   -3.1239 H   0  0  0  0  0  0  0  0  0  0  0  0
    2.5394    0.0972   -2.7334 H   0  0  0  0  0  0  0  0  0  0  0  0
   -2.7917    1.6004   -2.3777 H   0  0  0  0  0  0  0  0  0  0  0  0
    0.7158    2.7542   -2.0097 H   0  0  0  0  0  0  0  0  0  0  0  0
    1.5067    4.9886   -1.1527 H   0  0  0  0  0  0  0  0  0  0  0  0
   -0.1200    0.3762   -2.6489 O   0  0  0  0  0  0  0  0  0  0  0  0
   -0.4452    0.0456   -3.5003 H   0  0  0  0  0  0  0  0  0  0  0  0
  2 15  2  0  0  0  0
  2  1  9  0  0  0  0
  3 14  1  0  0  0  0
  4 28  1  1  0  0  0
  4 16  1  0  0  0  0
  4  1  9  0  0  0  0
  5 21  1  0  0  0  0
  5  1  9  0  0  0  0
  6 23  1  0  0  0  0
  6  1  9  0  0  0  0
  7 29  1  0  0  0  0
  7  1  9  0  0  0  0
  8  2  1  0  0  0  0
  8 13  1  0  0  0  0
  9  8  2  0  0  0  0
 10  9  1  0  0  0  0
 10 11  2  0  0  0  0
 11 12  1  0  0  0  0
 12 13  2  0  0  0  0
 12 51  1  0  0  0  0
 13  3  1  0  0  0  0
 14 49  1  0  0  0  0
 14 48  1  0  0  0  0
 15  3  1  0  0  0  0
 15 16  1  0  0  0  0
 16 42  1  0  0  0  0
 16 43  1  0  0  0  0
 17 18  1  0  0  0  0
 17  5  2  0  0  0  0
 18 19  2  0  0  0  0
 19 39  1  0  0  0  0
 19 20  1  0  0  0  0
 20 38  1  0  0  0  0
 21 20  2  0  0  0  0
 21 22  1  0  0  0  0
 22  4  1  0  0  0  0
 22 34  1  1  0  0  0
 23 24  2  0  0  0  0
 23 22  1  0  0  0  0
 24 35  1  0  0  0  0
 25 36  1  0  0  0  0
 25 24  1  0  0  0  0
 26 25  2  0  0  0  0
 27 26  1  0  0  0  0
 27  6  2  0  0  0  0
 28 44  1  0  0  0  0
 29 30  2  0  0  0  0
 29 28  1  0  0  0  0
 30 46  1  0  0  0  0
 31 47  1  0  0  0  0
 31 30  1  0  0  0  0
 32 31  2  0  0  0  0
 33 32  1  0  0  0  0
 33  7  2  0  0  0  0
 37 26  1  0  0  0  0
 40 18  1  0  0  0  0
 41 17  1  0  0  0  0
 45 28  1  0  0  0  0
 50 14  1  0  0  0  0
 52 11  1  0  0  0  0
 53 10  1  0  0  0  0
 54  9  1  0  0  0  0
 55 27  1  0  0  0  0
 56 33  1  0  0  0  0
 57 32  1  0  0  0  0
 58  1  1  0  0  0  0
 59 58  1  0  0  0  0
M  CHG  1   1   2
M  END
$$$$
