
 OpenBabel02052520083D

 60 68  0  0  0  0  0  0  0  0999 V2000
   -0.3783   -0.3464    0.3812 Fe  0  2  0  0  0  0  0  0  0  0  0  0
    1.4735    0.4542   -0.0708 N   0  0  0  0  0  0  0  0  0  0  0  0
    2.8270    1.6655   -1.3558 N   0  0  0  0  0  0  0  0  0  0  0  0
   -0.8037    0.7981   -1.5848 N   0  0  2  0  0  0  0  0  0  0  0  0
   -1.0269    1.6473    1.0139 N   0  0  0  0  0  0  0  0  0  0  0  0
   -2.5255   -0.5687    0.0309 N   0  0  0  0  0  0  0  0  0  0  0  0
   -0.0114   -1.8322   -1.1215 N   0  0  0  0  0  0  0  0  0  0  0  0
    2.7714    0.2775    0.4055 C   0  0  0  0  0  0  0  0  0  0  0  0
    3.2649   -0.4878    1.4664 C   0  0  0  0  0  0  0  0  0  0  0  0
    4.6382   -0.4502    1.6872 C   0  0  0  0  0  0  0  0  0  0  0  0
    5.4977    0.3228    0.8774 C   0  0  0  0  0  0  0  0  0  0  0  0
    5.0155    1.0863   -0.1830 C   0  0  0  0  0  0  0  0  0  0  0  0
    3.6375    1.0433   -0.3986 C   0  0  0  0  0  0  0  0  0  0  0  0
    3.3236    2.5813   -2.3815 C   0  0  0  0  0  0  0  0  0  0  0  0
    1.5531    1.2783   -1.1142 C   0  0  0  0  0  0  0  0  0  0  0  0
    0.3252    1.7275   -1.8578 C   0  0  0  0  0  0  0  0  0  0  0  0
   -0.7308    2.2421    2.1786 C   0  0  0  0  0  0  0  0  0  0  0  0
   -1.1620    3.5355    2.4720 C   0  0  0  0  0  0  0  0  0  0  0  0
   -1.9145    4.2229    1.5195 C   0  0  0  0  0  0  0  0  0  0  0  0
   -2.2170    3.5994    0.3030 C   0  0  0  0  0  0  0  0  0  0  0  0
   -1.7562    2.3064    0.0900 C   0  0  0  0  0  0  0  0  0  0  0  0
   -2.0655    1.4788   -1.1529 C   0  0  2  0  0  0  0  0  0  0  0  0
   -3.0621    0.4028   -0.7365 C   0  0  0  0  0  0  0  0  0  0  0  0
   -4.4135    0.4262   -1.0561 C   0  0  0  0  0  0  0  0  0  0  0  0
   -5.2342   -0.5918   -0.5559 C   0  0  0  0  0  0  0  0  0  0  0  0
   -4.6756   -1.5919    0.2400 C   0  0  0  0  0  0  0  0  0  0  0  0
   -3.3085   -1.5461    0.5110 C   0  0  0  0  0  0  0  0  0  0  0  0
   -0.9931   -0.2105   -2.6615 C   0  0  0  0  0  0  0  0  0  0  0  0
   -0.2094   -1.4843   -2.4095 C   0  0  0  0  0  0  0  0  0  0  0  0
    0.2190   -2.2999   -3.4533 C   0  0  0  0  0  0  0  0  0  0  0  0
    0.8541   -3.5078   -3.1545 C   0  0  0  0  0  0  0  0  0  0  0  0
    1.0497   -3.8630   -1.8190 C   0  0  0  0  0  0  0  0  0  0  0  0
    0.6074   -2.9911   -0.8297 C   0  0  0  0  0  0  0  0  0  0  0  0
   -2.4886    2.1109   -1.9429 H   0  0  0  0  0  0  0  0  0  0  0  0
   -4.8185    1.2166   -1.6800 H   0  0  0  0  0  0  0  0  0  0  0  0
   -6.2945   -0.6007   -0.7884 H   0  0  0  0  0  0  0  0  0  0  0  0
   -5.2819   -2.3943    0.6459 H   0  0  0  0  0  0  0  0  0  0  0  0
   -2.7993    4.1091   -0.4582 H   0  0  0  0  0  0  0  0  0  0  0  0
   -2.2626    5.2322    1.7162 H   0  0  0  0  0  0  0  0  0  0  0  0
   -0.9110    3.9870    3.4257 H   0  0  0  0  0  0  0  0  0  0  0  0
   -0.1397    1.6576    2.8761 H   0  0  0  0  0  0  0  0  0  0  0  0
    0.0522    2.7353   -1.5258 H   0  0  0  0  0  0  0  0  0  0  0  0
    0.5165    1.7941   -2.9343 H   0  0  0  0  0  0  0  0  0  0  0  0
   -0.7389    0.2093   -3.6413 H   0  0  0  0  0  0  0  0  0  0  0  0
   -2.0543   -0.4731   -2.7035 H   0  0  0  0  0  0  0  0  0  0  0  0
    0.0540   -1.9988   -4.4833 H   0  0  0  0  0  0  0  0  0  0  0  0
    1.1937   -4.1588   -3.9541 H   0  0  0  0  0  0  0  0  0  0  0  0
    2.5062    2.9048   -3.0263 H   0  0  0  0  0  0  0  0  0  0  0  0
    4.0788    2.0748   -2.9883 H   0  0  0  0  0  0  0  0  0  0  0  0
    3.7706    3.4590   -1.9065 H   0  0  0  0  0  0  0  0  0  0  0  0
    5.6798    1.6801   -0.8021 H   0  0  0  0  0  0  0  0  0  0  0  0
    6.5623    0.3232    1.0874 H   0  0  0  0  0  0  0  0  0  0  0  0
    5.0622   -1.0270    2.5028 H   0  0  0  0  0  0  0  0  0  0  0  0
    2.5998   -1.0772    2.0878 H   0  0  0  0  0  0  0  0  0  0  0  0
   -2.8154   -2.2933    1.1239 H   0  0  0  0  0  0  0  0  0  0  0  0
    0.7455   -3.1994    0.2257 H   0  0  0  0  0  0  0  0  0  0  0  0
    1.5405   -4.7906   -1.5455 H   0  0  0  0  0  0  0  0  0  0  0  0
   -0.1678   -1.2926    1.9801 N   0  0  0  0  0  0  0  0  0  0  0  0
   -0.0484   -1.8791    3.0318 C   0  0  0  0  0  0  0  0  0  0  0  0
    0.1201   -2.6462    4.4016 S   0  0  0  0  0  0  0  0  0  0  0  0
  1 58  1  0  0  0  0
  2  8  1  0  0  0  0
  2  1  9  0  0  0  0
  3 15  1  0  0  0  0
  3 13  1  0  0  0  0
  4 28  1  6  0  0  0
  4 22  1  0  0  0  0
  4  1  9  0  0  0  0
  5 17  1  0  0  0  0
  5  1  9  0  0  0  0
  6 27  1  0  0  0  0
  6  1  9  0  0  0  0
  7 33  1  0  0  0  0
  7  1  9  0  0  0  0
  8  9  1  0  0  0  0
  9 10  2  0  0  0  0
  9 54  1  0  0  0  0
 10 53  1  0  0  0  0
 11 52  1  0  0  0  0
 11 10  1  0  0  0  0
 12 11  2  0  0  0  0
 13 12  1  0  0  0  0
 13  8  2  0  0  0  0
 14 50  1  0  0  0  0
 14  3  1  0  0  0  0
 15  2  2  0  0  0  0
 16  4  1  0  0  0  0
 16 42  1  0  0  0  0
 16 15  1  0  0  0  0
 17 18  2  0  0  0  0
 17 41  1  0  0  0  0
 18 40  1  0  0  0  0
 19 39  1  0  0  0  0
 19 18  1  0  0  0  0
 20 19  2  0  0  0  0
 21 20  1  0  0  0  0
 21  5  2  0  0  0  0
 22 34  1  6  0  0  0
 22 23  1  0  0  0  0
 22 21  1  0  0  0  0
 23  6  2  0  0  0  0
 24 23  1  0  0  0  0
 24 25  2  0  0  0  0
 25 26  1  0  0  0  0
 26 27  2  0  0  0  0
 26 37  1  0  0  0  0
 27 55  1  0  0  0  0
 28 29  1  0  0  0  0
 29  7  2  0  0  0  0
 30 31  2  0  0  0  0
 30 29  1  0  0  0  0
 31 32  1  0  0  0  0
 32 57  1  0  0  0  0
 32 33  2  0  0  0  0
 33 56  1  0  0  0  0
 35 24  1  0  0  0  0
 36 25  1  0  0  0  0
 38 20  1  0  0  0  0
 43 16  1  0  0  0  0
 44 28  1  0  0  0  0
 45 28  1  0  0  0  0
 46 30  1  0  0  0  0
 47 31  1  0  0  0  0
 48 14  1  0  0  0  0
 49 14  1  0  0  0  0
 51 12  1  0  0  0  0
 58 59  2  0  0  0  0
 59 60  2  0  0  0  0
M  CHG  1   1   2
M  END
$$$$
