
 OpenBabel02052520083D

 65 74  0  0  0  0  0  0  0  0999 V2000
    0.4349   -0.0001   -0.5530 Fe  0  2  0  0  0  0  0  0  0  0  0  0
    2.1010    1.4192   -0.3840 N   0  0  0  0  0  0  0  0  0  0  0  0
    2.1010   -1.4194   -0.3840 N   0  0  0  0  0  0  0  0  0  0  0  0
   -0.7892   -1.4772    0.2120 N   0  0  0  0  0  0  0  0  0  0  0  0
   -0.7891    1.4771    0.2120 N   0  0  0  0  0  0  0  0  0  0  0  0
    1.0330   -0.0001    1.7012 N   0  0  2  0  0  0  0  0  0  0  0  0
   -1.5278   -2.7223    1.9023 N   0  0  0  0  0  0  0  0  0  0  0  0
   -1.5276    2.7223    1.9023 N   0  0  0  0  0  0  0  0  0  0  0  0
    2.3574    2.4325   -1.2253 C   0  0  0  0  0  0  0  0  0  0  0  0
    3.4302    3.3001   -1.0211 C   0  0  0  0  0  0  0  0  0  0  0  0
    4.2500    3.1058    0.0902 C   0  0  0  0  0  0  0  0  0  0  0  0
    3.9764    2.0492    0.9670 C   0  0  0  0  0  0  0  0  0  0  0  0
    2.8925    1.2257    0.6911 C   0  0  0  0  0  0  0  0  0  0  0  0
    2.5201   -0.0001    1.5147 C   0  0  2  0  0  0  0  0  0  0  0  0
    3.0545   -0.0001    2.4723 H   0  0  0  0  0  0  0  0  0  0  0  0
    2.8925   -1.2259    0.6910 C   0  0  0  0  0  0  0  0  0  0  0  0
    3.9764   -2.0494    0.9669 C   0  0  0  0  0  0  0  0  0  0  0  0
    4.2500   -3.1059    0.0901 C   0  0  0  0  0  0  0  0  0  0  0  0
    3.4302   -3.3003   -1.0212 C   0  0  0  0  0  0  0  0  0  0  0  0
    2.3573   -2.4327   -1.2253 C   0  0  0  0  0  0  0  0  0  0  0  0
    0.5011   -1.2436    2.3218 C   0  0  0  0  0  0  0  0  0  0  0  0
   -0.6196   -1.8077    1.4923 C   0  0  0  0  0  0  0  0  0  0  0  0
   -1.6569   -3.3601    3.2113 C   0  0  0  0  0  0  0  0  0  0  0  0
   -2.3537   -3.0057    0.8089 C   0  0  0  0  0  0  0  0  0  0  0  0
   -3.4437   -3.8668    0.6775 C   0  0  0  0  0  0  0  0  0  0  0  0
   -4.0551   -3.9001   -0.5732 C   0  0  0  0  0  0  0  0  0  0  0  0
   -3.5944   -3.1047   -1.6436 C   0  0  0  0  0  0  0  0  0  0  0  0
   -2.5067   -2.2481   -1.5050 C   0  0  0  0  0  0  0  0  0  0  0  0
   -1.8826   -2.2104   -0.2541 C   0  0  0  0  0  0  0  0  0  0  0  0
   -0.6194    1.8076    1.4924 C   0  0  0  0  0  0  0  0  0  0  0  0
    0.5011    1.2434    2.3219 C   0  0  0  0  0  0  0  0  0  0  0  0
   -1.6564    3.3603    3.2113 C   0  0  0  0  0  0  0  0  0  0  0  0
   -2.3534    3.0059    0.8089 C   0  0  0  0  0  0  0  0  0  0  0  0
   -3.4432    3.8672    0.6775 C   0  0  0  0  0  0  0  0  0  0  0  0
   -4.0545    3.9007   -0.5733 C   0  0  0  0  0  0  0  0  0  0  0  0
   -3.5939    3.1052   -1.6437 C   0  0  0  0  0  0  0  0  0  0  0  0
   -2.5064    2.2484   -1.5050 C   0  0  0  0  0  0  0  0  0  0  0  0
   -1.8824    2.2105   -0.2541 C   0  0  0  0  0  0  0  0  0  0  0  0
   -0.9154    2.9595    3.9032 H   0  0  0  0  0  0  0  0  0  0  0  0
   -2.6571    3.1755    3.6107 H   0  0  0  0  0  0  0  0  0  0  0  0
   -1.5013    4.4382    3.1110 H   0  0  0  0  0  0  0  0  0  0  0  0
   -4.1023    3.1652   -2.6005 H   0  0  0  0  0  0  0  0  0  0  0  0
   -2.1511    1.6388   -2.3273 H   0  0  0  0  0  0  0  0  0  0  0  0
    1.3072    1.9823    2.3876 H   0  0  0  0  0  0  0  0  0  0  0  0
    0.1726    1.0505    3.3487 H   0  0  0  0  0  0  0  0  0  0  0  0
    1.3071   -1.9826    2.3874 H   0  0  0  0  0  0  0  0  0  0  0  0
    0.1727   -1.0508    3.3486 H   0  0  0  0  0  0  0  0  0  0  0  0
   -2.6562   -3.1715    3.6126 H   0  0  0  0  0  0  0  0  0  0  0  0
   -0.9131   -2.9624    3.9021 H   0  0  0  0  0  0  0  0  0  0  0  0
   -1.5062   -4.4384    3.1105 H   0  0  0  0  0  0  0  0  0  0  0  0
   -3.7991   -4.4791    1.4996 H   0  0  0  0  0  0  0  0  0  0  0  0
   -4.9069   -4.5543   -0.7282 H   0  0  0  0  0  0  0  0  0  0  0  0
   -4.1029   -3.1647   -2.6004 H   0  0  0  0  0  0  0  0  0  0  0  0
   -2.1514   -1.6386   -2.3273 H   0  0  0  0  0  0  0  0  0  0  0  0
    1.6873   -2.5303   -2.0725 H   0  0  0  0  0  0  0  0  0  0  0  0
    3.6138   -4.1058   -1.7238 H   0  0  0  0  0  0  0  0  0  0  0  0
    5.0920   -3.7652    0.2764 H   0  0  0  0  0  0  0  0  0  0  0  0
    4.5951   -1.8715    1.8408 H   0  0  0  0  0  0  0  0  0  0  0  0
    1.6874    2.5301   -2.0725 H   0  0  0  0  0  0  0  0  0  0  0  0
    3.6138    4.1057   -1.7236 H   0  0  0  0  0  0  0  0  0  0  0  0
    5.0920    3.7651    0.2766 H   0  0  0  0  0  0  0  0  0  0  0  0
    4.5951    1.8713    1.8409 H   0  0  0  0  0  0  0  0  0  0  0  0
   -3.7985    4.4796    1.4995 H   0  0  0  0  0  0  0  0  0  0  0  0
   -4.9062    4.5550   -0.7283 H   0  0  0  0  0  0  0  0  0  0  0  0
    0.1681   -0.0001   -2.9377 Br  0  0  0  0  0  0  0  0  0  0  0  0
  2 13  1  0  0  0  0
  2  1  9  0  0  0  0
  3 16  1  0  0  0  0
  3  1  9  0  0  0  0
  4 22  2  0  0  0  0
  4  1  9  0  0  0  0
  5 30  2  0  0  0  0
  5  1  9  0  0  0  0
  6 21  1  1  0  0  0
  6 31  1  0  0  0  0
  6  1  9  0  0  0  0
  7 23  1  0  0  0  0
  8 32  1  0  0  0  0
  9 10  1  0  0  0  0
  9  2  2  0  0  0  0
 10 11  2  0  0  0  0
 11 61  1  0  0  0  0
 11 12  1  0  0  0  0
 12 62  1  0  0  0  0
 13 12  2  0  0  0  0
 13 14  1  0  0  0  0
 14  6  1  0  0  0  0
 14 15  1  1  0  0  0
 16 17  2  0  0  0  0
 16 14  1  0  0  0  0
 17 58  1  0  0  0  0
 18 57  1  0  0  0  0
 18 17  1  0  0  0  0
 19 18  2  0  0  0  0
 20 19  1  0  0  0  0
 20  3  2  0  0  0  0
 21 46  1  0  0  0  0
 21 47  1  0  0  0  0
 22  7  1  0  0  0  0
 22 21  1  0  0  0  0
 23 48  1  0  0  0  0
 23 49  1  0  0  0  0
 24  7  1  0  0  0  0
 25 24  2  0  0  0  0
 25 51  1  0  0  0  0
 26 25  1  0  0  0  0
 27 28  1  0  0  0  0
 27 26  2  0  0  0  0
 28 29  2  0  0  0  0
 29  4  1  0  0  0  0
 29 24  1  0  0  0  0
 30  8  1  0  0  0  0
 30 31  1  0  0  0  0
 31 44  1  0  0  0  0
 31 45  1  0  0  0  0
 32 40  1  0  0  0  0
 32 39  1  0  0  0  0
 33  8  1  0  0  0  0
 34 33  2  0  0  0  0
 34 63  1  0  0  0  0
 35 34  1  0  0  0  0
 36 37  1  0  0  0  0
 36 35  2  0  0  0  0
 37 38  2  0  0  0  0
 38  5  1  0  0  0  0
 38 33  1  0  0  0  0
 41 32  1  0  0  0  0
 42 36  1  0  0  0  0
 43 37  1  0  0  0  0
 50 23  1  0  0  0  0
 52 26  1  0  0  0  0
 53 27  1  0  0  0  0
 54 28  1  0  0  0  0
 55 20  1  0  0  0  0
 56 19  1  0  0  0  0
 59  9  1  0  0  0  0
 60 10  1  0  0  0  0
 64 35  1  0  0  0  0
 65  1  1  0  0  0  0
M  CHG  1   1   2
M  END
$$$$
