
 OpenBabel02052520083D

 65 74  0  0  0  0  0  0  0  0999 V2000
    0.4279   -0.0001   -0.7454 Fe  0  2  0  0  0  0  0  0  0  0  0  0
    2.0929    1.4091   -0.5912 N   0  0  0  0  0  0  0  0  0  0  0  0
    2.0928   -1.4094   -0.5913 N   0  0  0  0  0  0  0  0  0  0  0  0
   -0.7718   -1.4761    0.0458 N   0  0  0  0  0  0  0  0  0  0  0  0
   -0.7716    1.4761    0.0458 N   0  0  0  0  0  0  0  0  0  0  0  0
    1.0559   -0.0001    1.5205 N   0  0  2  0  0  0  0  0  0  0  0  0
   -1.4959   -2.7327    1.7318 N   0  0  0  0  0  0  0  0  0  0  0  0
   -1.4956    2.7327    1.7319 N   0  0  0  0  0  0  0  0  0  0  0  0
    2.3351    2.4122   -1.4478 C   0  0  0  0  0  0  0  0  0  0  0  0
    3.4089    3.2838   -1.2658 C   0  0  0  0  0  0  0  0  0  0  0  0
    4.2415    3.1024   -0.1617 C   0  0  0  0  0  0  0  0  0  0  0  0
    3.9825    2.0536    0.7292 C   0  0  0  0  0  0  0  0  0  0  0  0
    2.8976    1.2246    0.4751 C   0  0  0  0  0  0  0  0  0  0  0  0
    2.5393   -0.0002    1.3078 C   0  0  2  0  0  0  0  0  0  0  0  0
    3.0920   -0.0002    2.2551 H   0  0  0  0  0  0  0  0  0  0  0  0
    2.8975   -1.2250    0.4751 C   0  0  0  0  0  0  0  0  0  0  0  0
    3.9824   -2.0540    0.7291 C   0  0  0  0  0  0  0  0  0  0  0  0
    4.2414   -3.1028   -0.1619 C   0  0  0  0  0  0  0  0  0  0  0  0
    3.4087   -3.2841   -1.2660 C   0  0  0  0  0  0  0  0  0  0  0  0
    2.3350   -2.4124   -1.4479 C   0  0  0  0  0  0  0  0  0  0  0  0
    0.5308   -1.2439    2.1461 C   0  0  0  0  0  0  0  0  0  0  0  0
   -0.5942   -1.8108    1.3234 C   0  0  0  0  0  0  0  0  0  0  0  0
   -1.6167   -3.3763    3.0388 C   0  0  0  0  0  0  0  0  0  0  0  0
   -2.3237   -3.0164    0.6392 C   0  0  0  0  0  0  0  0  0  0  0  0
   -3.4089   -3.8829    0.5043 C   0  0  0  0  0  0  0  0  0  0  0  0
   -4.0205   -3.9135   -0.7467 C   0  0  0  0  0  0  0  0  0  0  0  0
   -3.5652   -3.1111   -1.8145 C   0  0  0  0  0  0  0  0  0  0  0  0
   -2.4825   -2.2486   -1.6729 C   0  0  0  0  0  0  0  0  0  0  0  0
   -1.8601   -2.2138   -0.4213 C   0  0  0  0  0  0  0  0  0  0  0  0
   -0.5940    1.8107    1.3234 C   0  0  0  0  0  0  0  0  0  0  0  0
    0.5309    1.2436    2.1461 C   0  0  0  0  0  0  0  0  0  0  0  0
   -1.6160    3.3766    3.0388 C   0  0  0  0  0  0  0  0  0  0  0  0
   -2.3233    3.0167    0.6392 C   0  0  0  0  0  0  0  0  0  0  0  0
   -3.4083    3.8835    0.5043 C   0  0  0  0  0  0  0  0  0  0  0  0
   -4.0197    3.9142   -0.7468 C   0  0  0  0  0  0  0  0  0  0  0  0
   -3.5646    3.1117   -1.8146 C   0  0  0  0  0  0  0  0  0  0  0  0
   -2.4821    2.2490   -1.6729 C   0  0  0  0  0  0  0  0  0  0  0  0
   -1.8598    2.2140   -0.4213 C   0  0  0  0  0  0  0  0  0  0  0  0
   -0.8767    2.9716    3.7302 H   0  0  0  0  0  0  0  0  0  0  0  0
   -2.6172    3.2012    3.4412 H   0  0  0  0  0  0  0  0  0  0  0  0
   -1.4523    4.4527    2.9345 H   0  0  0  0  0  0  0  0  0  0  0  0
   -4.0734    3.1715   -2.7713 H   0  0  0  0  0  0  0  0  0  0  0  0
   -2.1274    1.6330   -2.4911 H   0  0  0  0  0  0  0  0  0  0  0  0
    1.3386    1.9814    2.2071 H   0  0  0  0  0  0  0  0  0  0  0  0
    0.2087    1.0510    3.1749 H   0  0  0  0  0  0  0  0  0  0  0  0
    1.3384   -1.9817    2.2069 H   0  0  0  0  0  0  0  0  0  0  0  0
    0.2087   -1.0513    3.1749 H   0  0  0  0  0  0  0  0  0  0  0  0
   -2.6165   -3.1971    3.4431 H   0  0  0  0  0  0  0  0  0  0  0  0
   -0.8744   -2.9745    3.7290 H   0  0  0  0  0  0  0  0  0  0  0  0
   -1.4574   -4.4530    2.9339 H   0  0  0  0  0  0  0  0  0  0  0  0
   -3.7608   -4.5014    1.3232 H   0  0  0  0  0  0  0  0  0  0  0  0
   -4.8686   -4.5719   -0.9042 H   0  0  0  0  0  0  0  0  0  0  0  0
   -4.0741   -3.1708   -2.7712 H   0  0  0  0  0  0  0  0  0  0  0  0
   -2.1277   -1.6327   -2.4911 H   0  0  0  0  0  0  0  0  0  0  0  0
    1.6529   -2.4967   -2.2873 H   0  0  0  0  0  0  0  0  0  0  0  0
    3.5832   -4.0824   -1.9791 H   0  0  0  0  0  0  0  0  0  0  0  0
    5.0839   -3.7662    0.0076 H   0  0  0  0  0  0  0  0  0  0  0  0
    4.6135   -1.8862    1.5961 H   0  0  0  0  0  0  0  0  0  0  0  0
    1.6531    2.4965   -2.2872 H   0  0  0  0  0  0  0  0  0  0  0  0
    3.5834    4.0821   -1.9789 H   0  0  0  0  0  0  0  0  0  0  0  0
    5.0841    3.7657    0.0078 H   0  0  0  0  0  0  0  0  0  0  0  0
    4.6136    1.8857    1.5962 H   0  0  0  0  0  0  0  0  0  0  0  0
   -3.7600    4.5020    1.3232 H   0  0  0  0  0  0  0  0  0  0  0  0
   -4.8677    4.5728   -0.9043 H   0  0  0  0  0  0  0  0  0  0  0  0
    0.1105   -0.0000   -2.9318 Cl  0  0  0  0  0  0  0  0  0  0  0  0
  2 13  1  0  0  0  0
  2  1  9  0  0  0  0
  3 16  1  0  0  0  0
  3  1  9  0  0  0  0
  4 22  2  0  0  0  0
  4  1  9  0  0  0  0
  5 30  2  0  0  0  0
  5  1  9  0  0  0  0
  6 21  1  1  0  0  0
  6 31  1  0  0  0  0
  6  1  9  0  0  0  0
  7 23  1  0  0  0  0
  8 32  1  0  0  0  0
  9 10  1  0  0  0  0
  9  2  2  0  0  0  0
 10 11  2  0  0  0  0
 11 61  1  0  0  0  0
 11 12  1  0  0  0  0
 12 62  1  0  0  0  0
 13 12  2  0  0  0  0
 13 14  1  0  0  0  0
 14  6  1  0  0  0  0
 14 15  1  1  0  0  0
 16 17  2  0  0  0  0
 16 14  1  0  0  0  0
 17 58  1  0  0  0  0
 18 57  1  0  0  0  0
 18 17  1  0  0  0  0
 19 18  2  0  0  0  0
 20 19  1  0  0  0  0
 20  3  2  0  0  0  0
 21 46  1  0  0  0  0
 21 47  1  0  0  0  0
 22  7  1  0  0  0  0
 22 21  1  0  0  0  0
 23 48  1  0  0  0  0
 23 49  1  0  0  0  0
 24  7  1  0  0  0  0
 25 24  2  0  0  0  0
 25 51  1  0  0  0  0
 26 25  1  0  0  0  0
 27 28  1  0  0  0  0
 27 26  2  0  0  0  0
 28 29  2  0  0  0  0
 29  4  1  0  0  0  0
 29 24  1  0  0  0  0
 30  8  1  0  0  0  0
 30 31  1  0  0  0  0
 31 44  1  0  0  0  0
 31 45  1  0  0  0  0
 32 40  1  0  0  0  0
 32 39  1  0  0  0  0
 33  8  1  0  0  0  0
 34 33  2  0  0  0  0
 34 63  1  0  0  0  0
 35 34  1  0  0  0  0
 36 37  1  0  0  0  0
 36 35  2  0  0  0  0
 37 38  2  0  0  0  0
 38  5  1  0  0  0  0
 38 33  1  0  0  0  0
 41 32  1  0  0  0  0
 42 36  1  0  0  0  0
 43 37  1  0  0  0  0
 50 23  1  0  0  0  0
 52 26  1  0  0  0  0
 53 27  1  0  0  0  0
 54 28  1  0  0  0  0
 55 20  1  0  0  0  0
 56 19  1  0  0  0  0
 59  9  1  0  0  0  0
 60 10  1  0  0  0  0
 64 35  1  0  0  0  0
 65  1  1  0  0  0  0
M  CHG  1   1   2
M  END
$$$$
