
 OpenBabel02052520083D

 48 52  0  0  0  0  0  0  0  0999 V2000
   -2.3300   -3.0832    0.5027 H   0  0  0  0  0  0  0  0  0  0  0  0
   -3.9009   -1.1923   -1.1404 H   0  0  0  0  0  0  0  0  0  0  0  0
   -3.0316   -1.6018    1.1095 H   0  0  0  0  0  0  0  0  0  0  0  0
   -2.1242   -2.0235    0.6782 C   0  0  0  0  0  0  0  0  0  0  0  0
   -3.6134    0.2884    0.8292 H   0  0  0  0  0  0  0  0  0  0  0  0
   -1.2173   -2.1458    2.6492 H   0  0  0  0  0  0  0  0  0  0  0  0
   -3.0136   -0.5494   -1.0903 C   0  0  0  0  0  0  0  0  0  0  0  0
   -2.2661   -0.0600    2.5974 H   0  0  0  0  0  0  0  0  0  0  0  0
   -3.9943    1.2964   -0.5492 H   0  0  0  0  0  0  0  0  0  0  0  0
   -1.4389   -2.3441   -1.6552 C   0  0  0  0  0  0  0  0  0  0  0  0
   -3.2399    0.6187   -0.1408 C   0  0  0  0  0  0  0  0  0  0  0  0
   -1.8237   -1.3350   -0.6277 N   0  0  2  0  0  0  0  0  0  0  0  0
   -0.9501   -1.8671    1.6233 C   0  0  0  0  0  0  0  0  0  0  0  0
   -2.7854   -0.1895   -2.0941 H   0  0  0  0  0  0  0  0  0  0  0  0
   -0.1312   -2.5135    1.3066 H   0  0  0  0  0  0  0  0  0  0  0  0
   -1.3589    0.4877    2.3372 C   0  0  0  0  0  0  0  0  0  0  0  0
   -0.8948    0.7886    3.2814 H   0  0  0  0  0  0  0  0  0  0  0  0
   -2.5618    2.2485    1.9175 H   0  0  0  0  0  0  0  0  0  0  0  0
   -0.4510   -0.4509    1.5852 N   0  0  1  0  0  0  0  0  0  0  0  0
   -1.9440    1.3633    0.0639 N   0  0  2  0  0  0  0  0  0  0  0  0
   -1.6920    1.7269    1.4999 C   0  0  0  0  0  0  0  0  0  0  0  0
    1.0882   -0.9518    2.9929 H   0  0  0  0  0  0  0  0  0  0  0  0
   -1.9522    2.5923   -0.7868 C   0  0  0  0  0  0  0  0  0  0  0  0
    0.9748   -0.4347    2.0328 C   0  0  0  0  0  0  0  0  0  0  0  0
   -0.8520    2.4222    1.5011 H   0  0  0  0  0  0  0  0  0  0  0  0
   -0.3950    0.1291   -0.3840 Fe  0  2  0  0  0  0  0  0  0  0  0  0
    1.2777    0.6069    2.1713 H   0  0  0  0  0  0  0  0  0  0  0  0
    1.7984   -1.0862    0.9423 C   0  0  0  0  0  0  0  0  0  0  0  0
    1.2504   -1.0110   -0.2957 N   0  0  0  0  0  0  0  0  0  0  0  0
    3.4330   -1.7833    2.1506 H   0  0  0  0  0  0  0  0  0  0  0  0
    3.0180   -1.7170    1.1498 C   0  0  0  0  0  0  0  0  0  0  0  0
    1.8926   -1.5274   -1.3572 C   0  0  0  0  0  0  0  0  0  0  0  0
    1.3966   -1.4062   -2.3129 H   0  0  0  0  0  0  0  0  0  0  0  0
    3.6921   -2.2621    0.0517 C   0  0  0  0  0  0  0  0  0  0  0  0
    3.1216   -2.1668   -1.2186 C   0  0  0  0  0  0  0  0  0  0  0  0
    4.6480   -2.7575    0.1903 H   0  0  0  0  0  0  0  0  0  0  0  0
    3.6154   -2.5777   -2.0924 H   0  0  0  0  0  0  0  0  0  0  0  0
   -0.9959    3.1050   -0.7030 H   0  0  0  0  0  0  0  0  0  0  0  0
   -2.7548    3.2618   -0.4593 H   0  0  0  0  0  0  0  0  0  0  0  0
   -2.1120    2.2943   -1.8230 H   0  0  0  0  0  0  0  0  0  0  0  0
   -0.5984   -2.9291   -1.2783 H   0  0  0  0  0  0  0  0  0  0  0  0
   -1.1464   -1.8262   -2.5668 H   0  0  0  0  0  0  0  0  0  0  0  0
   -2.2834   -3.0114   -1.8591 H   0  0  0  0  0  0  0  0  0  0  0  0
   -0.4513    0.3125   -2.1507 O   0  0  0  0  0  0  0  0  0  0  0  0
    0.1554    0.9924   -2.4935 H   0  0  0  0  0  0  0  0  0  0  0  0
    0.8227    1.5671   -0.1685 N   0  0  0  0  0  0  0  0  0  0  0  0
    1.7552    2.3074   -0.2014 C   0  0  0  0  0  0  0  0  0  0  0  0
    2.9911    3.3377   -0.2330 S   0  0  0  0  0  0  0  0  0  0  0  0
  1  4  1  0  0  0  0
  2  7  1  0  0  0  0
  4  3  1  0  0  0  0
  4 13  1  0  0  0  0
  7 12  1  0  0  0  0
  7 11  1  0  0  0  0
  9 11  1  0  0  0  0
 10 41  1  0  0  0  0
 11 20  1  0  0  0  0
 11  5  1  0  0  0  0
 12 10  1  6  0  0  0
 12  4  1  0  0  0  0
 12 26  9  0  0  0  0
 13  6  1  0  0  0  0
 14  7  1  0  0  0  0
 15 13  1  0  0  0  0
 16  8  1  0  0  0  0
 16 17  1  0  0  0  0
 19 13  1  1  0  0  0
 19 24  1  0  0  0  0
 19 16  1  0  0  0  0
 19 26  9  0  0  0  0
 20 23  1  6  0  0  0
 20 21  1  0  0  0  0
 20 26  9  0  0  0  0
 21 25  1  0  0  0  0
 21 18  1  0  0  0  0
 21 16  1  0  0  0  0
 23 38  1  0  0  0  0
 23 39  1  0  0  0  0
 24 27  1  0  0  0  0
 24 22  1  0  0  0  0
 26 46  1  0  0  0  0
 28 31  2  0  0  0  0
 28 24  1  0  0  0  0
 29 28  1  0  0  0  0
 29 26  9  0  0  0  0
 31 30  1  0  0  0  0
 32 35  1  0  0  0  0
 32 29  2  0  0  0  0
 33 32  1  0  0  0  0
 34 36  1  0  0  0  0
 34 31  1  0  0  0  0
 35 34  2  0  0  0  0
 37 35  1  0  0  0  0
 40 23  1  0  0  0  0
 42 10  1  0  0  0  0
 43 10  1  0  0  0  0
 44 26  1  0  0  0  0
 45 44  1  0  0  0  0
 47 46  2  0  0  0  0
 48 47  2  0  0  0  0
M  CHG  1  26   2
M  END
$$$$
