
 OpenBabel02052520083D

 46 50  0  0  0  0  0  0  0  0999 V2000
    0.5916    1.3785    3.1178 H   0  0  0  0  0  0  0  0  0  0  0  0
    2.8514    2.2457    1.3681 H   0  0  0  0  0  0  0  0  0  0  0  0
    1.8721    0.3173    2.5734 H   0  0  0  0  0  0  0  0  0  0  0  0
    0.8757    0.6812    2.3240 C   0  0  0  0  0  0  0  0  0  0  0  0
    3.2496   -0.1955    1.1784 H   0  0  0  0  0  0  0  0  0  0  0  0
   -0.0293   -1.1433    3.0945 H   0  0  0  0  0  0  0  0  0  0  0  0
    2.3276    1.6870    0.5831 C   0  0  0  0  0  0  0  0  0  0  0  0
    1.8670   -1.8357    1.8884 H   0  0  0  0  0  0  0  0  0  0  0  0
    4.0198    0.5889   -0.1858 H   0  0  0  0  0  0  0  0  0  0  0  0
    0.1079    2.6416    1.0456 C   0  0  0  0  0  0  0  0  0  0  0  0
    3.0501    0.3809    0.2743 C   0  0  0  0  0  0  0  0  0  0  0  0
    0.9188    1.3931    1.0016 N   0  0  2  0  0  0  0  0  0  0  0  0
   -0.1222   -0.4576    2.2447 C   0  0  0  0  0  0  0  0  0  0  0  0
    2.2710    2.3139   -0.3082 H   0  0  0  0  0  0  0  0  0  0  0  0
   -1.1390   -0.0633    2.2430 H   0  0  0  0  0  0  0  0  0  0  0  0
    1.3038   -2.0952    0.9908 C   0  0  0  0  0  0  0  0  0  0  0  0
    1.0084   -3.1432    1.0928 H   0  0  0  0  0  0  0  0  0  0  0  0
    3.1656   -2.3013   -0.1126 H   0  0  0  0  0  0  0  0  0  0  0  0
    0.0677   -1.2198    0.9592 N   0  0  1  0  0  0  0  0  0  0  0  0
    2.2233   -0.4606   -0.6647 N   0  0  2  0  0  0  0  0  0  0  0  0
    2.1532   -1.9117   -0.2707 C   0  0  0  0  0  0  0  0  0  0  0  0
   -1.5334   -2.5351    1.5014 H   0  0  0  0  0  0  0  0  0  0  0  0
    2.7222   -0.3147   -2.0680 C   0  0  0  0  0  0  0  0  0  0  0  0
   -1.2036   -1.9504    0.6357 C   0  0  0  0  0  0  0  0  0  0  0  0
    1.7070   -2.4374   -1.1134 H   0  0  0  0  0  0  0  0  0  0  0  0
    0.2924    0.1170   -0.5471 Fe  0  2  0  0  0  0  0  0  0  0  0  0
   -0.9969   -2.6265   -0.1970 H   0  0  0  0  0  0  0  0  0  0  0  0
   -2.2239   -0.9157    0.2191 C   0  0  0  0  0  0  0  0  0  0  0  0
   -1.6877    0.2070   -0.3237 N   0  0  0  0  0  0  0  0  0  0  0  0
   -4.0191   -1.9528    0.7823 H   0  0  0  0  0  0  0  0  0  0  0  0
   -3.5999   -1.0579    0.3336 C   0  0  0  0  0  0  0  0  0  0  0  0
   -2.4690    1.1942   -0.7976 C   0  0  0  0  0  0  0  0  0  0  0  0
   -1.9557    2.0366   -1.2469 H   0  0  0  0  0  0  0  0  0  0  0  0
   -4.4267   -0.0341   -0.1448 C   0  0  0  0  0  0  0  0  0  0  0  0
   -3.8560    1.1040   -0.7187 C   0  0  0  0  0  0  0  0  0  0  0  0
   -5.5057   -0.1287   -0.0706 H   0  0  0  0  0  0  0  0  0  0  0  0
   -4.4688    1.9108   -1.1060 H   0  0  0  0  0  0  0  0  0  0  0  0
    2.0364   -0.8239   -2.7421 H   0  0  0  0  0  0  0  0  0  0  0  0
    3.7239   -0.7520   -2.1381 H   0  0  0  0  0  0  0  0  0  0  0  0
    2.7542    0.7460   -2.3176 H   0  0  0  0  0  0  0  0  0  0  0  0
   -0.9053    2.3965    1.3690 H   0  0  0  0  0  0  0  0  0  0  0  0
    0.0782    3.0786    0.0482 H   0  0  0  0  0  0  0  0  0  0  0  0
    0.5513    3.3553    1.7486 H   0  0  0  0  0  0  0  0  0  0  0  0
   -0.0339   -1.1252   -1.7933 O   0  0  0  0  0  0  0  0  0  0  0  0
   -0.8286   -0.9053   -2.3141 H   0  0  0  0  0  0  0  0  0  0  0  0
    0.4238    1.4764   -1.5887 F   0  0  0  0  0  0  0  0  0  0  0  0
  4  3  1  0  0  0  0
  4  1  1  0  0  0  0
  7 12  1  0  0  0  0
  7  2  1  0  0  0  0
  9 11  1  0  0  0  0
 10 41  1  0  0  0  0
 10 43  1  0  0  0  0
 11  7  1  0  0  0  0
 11  5  1  0  0  0  0
 12 10  1  1  0  0  0
 12  4  1  0  0  0  0
 12 26  9  0  0  0  0
 13  4  1  0  0  0  0
 13  6  1  0  0  0  0
 14  7  1  0  0  0  0
 15 13  1  0  0  0  0
 16 17  1  0  0  0  0
 16  8  1  0  0  0  0
 19 24  1  6  0  0  0
 19 16  1  0  0  0  0
 19 13  1  0  0  0  0
 19 26  9  0  0  0  0
 20 23  1  6  0  0  0
 20 21  1  0  0  0  0
 20 11  1  0  0  0  0
 20 26  9  0  0  0  0
 21 18  1  0  0  0  0
 21 16  1  0  0  0  0
 24 22  1  0  0  0  0
 25 21  1  0  0  0  0
 27 24  1  0  0  0  0
 28 31  2  0  0  0  0
 28 24  1  0  0  0  0
 29 28  1  0  0  0  0
 29 26  9  0  0  0  0
 31 30  1  0  0  0  0
 32 35  1  0  0  0  0
 32 29  2  0  0  0  0
 33 32  1  0  0  0  0
 34 36  1  0  0  0  0
 34 31  1  0  0  0  0
 35 34  2  0  0  0  0
 37 35  1  0  0  0  0
 38 23  1  0  0  0  0
 39 23  1  0  0  0  0
 40 23  1  0  0  0  0
 42 10  1  0  0  0  0
 44 26  1  0  0  0  0
 45 44  1  0  0  0  0
 46 26  1  0  0  0  0
M  CHG  1  26   2
M  END
$$$$
