
 OpenBabel02052520083D

 46 50  0  0  0  0  0  0  0  0999 V2000
   -0.4895    0.5592    3.4175 H   0  0  0  0  0  0  0  0  0  0  0  0
   -2.7855   -1.0133    2.4712 H   0  0  0  0  0  0  0  0  0  0  0  0
   -1.7628    1.2258    2.4196 H   0  0  0  0  0  0  0  0  0  0  0  0
   -0.7809    0.7563    2.3820 C   0  0  0  0  0  0  0  0  0  0  0  0
   -3.2011    0.9732    1.0561 H   0  0  0  0  0  0  0  0  0  0  0  0
    0.1799    2.6848    2.0987 H   0  0  0  0  0  0  0  0  0  0  0  0
   -2.3115   -0.9688    1.4829 C   0  0  0  0  0  0  0  0  0  0  0  0
   -1.7423    2.7338    0.7732 H   0  0  0  0  0  0  0  0  0  0  0  0
   -4.0309   -0.3826    0.3230 H   0  0  0  0  0  0  0  0  0  0  0  0
   -0.0810   -1.5915    2.3290 C   0  0  0  0  0  0  0  0  0  0  0  0
   -3.0412    0.0082    0.5734 C   0  0  0  0  0  0  0  0  0  0  0  0
   -0.8785   -0.5430    1.6218 N   0  0  2  0  0  0  0  0  0  0  0  0
    0.2328    1.6598    1.7140 C   0  0  0  0  0  0  0  0  0  0  0  0
   -2.3126   -1.9707    1.0528 H   0  0  0  0  0  0  0  0  0  0  0  0
    1.2424    1.2888    1.8913 H   0  0  0  0  0  0  0  0  0  0  0  0
   -1.2257    2.4616   -0.1484 C   0  0  0  0  0  0  0  0  0  0  0  0
   -0.9225    3.3962   -0.6291 H   0  0  0  0  0  0  0  0  0  0  0  0
   -3.1484    2.1284   -1.0964 H   0  0  0  0  0  0  0  0  0  0  0  0
    0.0006    1.6658    0.2290 N   0  0  1  0  0  0  0  0  0  0  0  0
   -2.2532    0.2263   -0.6951 N   0  0  2  0  0  0  0  0  0  0  0  0
   -2.1491    1.6775   -1.0870 C   0  0  0  0  0  0  0  0  0  0  0  0
    1.6316    3.0204   -0.0450 H   0  0  0  0  0  0  0  0  0  0  0  0
   -2.8775   -0.5426   -1.8169 C   0  0  0  0  0  0  0  0  0  0  0  0
    1.2635    2.0764   -0.4625 C   0  0  0  0  0  0  0  0  0  0  0  0
   -1.7578    1.6921   -2.1030 H   0  0  0  0  0  0  0  0  0  0  0  0
   -0.2695   -0.2436   -0.3925 Fe  0  2  0  0  0  0  0  0  0  0  0  0
    1.0405    2.2202   -1.5223 H   0  0  0  0  0  0  0  0  0  0  0  0
    2.2614    0.9544   -0.2894 C   0  0  0  0  0  0  0  0  0  0  0  0
    1.7196   -0.2838   -0.1259 N   0  0  0  0  0  0  0  0  0  0  0  0
    4.0501    2.1327   -0.4201 H   0  0  0  0  0  0  0  0  0  0  0  0
    3.6367    1.1364   -0.2998 C   0  0  0  0  0  0  0  0  0  0  0  0
    2.5154   -1.3616    0.0118 C   0  0  0  0  0  0  0  0  0  0  0  0
    2.0192   -2.3184    0.1101 H   0  0  0  0  0  0  0  0  0  0  0  0
    4.4710    0.0218   -0.1562 C   0  0  0  0  0  0  0  0  0  0  0  0
    3.9020   -1.2415    0.0064 C   0  0  0  0  0  0  0  0  0  0  0  0
    5.5498    0.1436   -0.1688 H   0  0  0  0  0  0  0  0  0  0  0  0
    4.5146   -2.1293    0.1204 H   0  0  0  0  0  0  0  0  0  0  0  0
   -2.2268   -0.4946   -2.6880 H   0  0  0  0  0  0  0  0  0  0  0  0
   -3.8512   -0.0988   -2.0524 H   0  0  0  0  0  0  0  0  0  0  0  0
   -3.0041   -1.5811   -1.5162 H   0  0  0  0  0  0  0  0  0  0  0  0
    0.9501   -1.2484    2.4251 H   0  0  0  0  0  0  0  0  0  0  0  0
   -0.1073   -2.5183    1.7597 H   0  0  0  0  0  0  0  0  0  0  0  0
   -0.5026   -1.7609    3.3258 H   0  0  0  0  0  0  0  0  0  0  0  0
    0.0078    0.2059   -2.0692 O   0  0  0  0  0  0  0  0  0  0  0  0
    0.3184   -0.5512   -2.6048 H   0  0  0  0  0  0  0  0  0  0  0  0
   -0.4542   -2.4224   -0.8402 Cl  0  0  0  0  0  0  0  0  0  0  0  0
  4  3  1  0  0  0  0
  4  1  1  0  0  0  0
  7 12  1  0  0  0  0
  7  2  1  0  0  0  0
  9 11  1  0  0  0  0
 10 41  1  0  0  0  0
 10 43  1  0  0  0  0
 11  5  1  0  0  0  0
 11  7  1  0  0  0  0
 12 10  1  1  0  0  0
 12  4  1  0  0  0  0
 12 26  9  0  0  0  0
 13 15  1  0  0  0  0
 13  6  1  0  0  0  0
 13  4  1  0  0  0  0
 14  7  1  0  0  0  0
 16 19  1  0  0  0  0
 16  8  1  0  0  0  0
 17 16  1  0  0  0  0
 18 21  1  0  0  0  0
 19 24  1  6  0  0  0
 19 13  1  0  0  0  0
 19 26  9  0  0  0  0
 20 23  1  6  0  0  0
 20 11  1  0  0  0  0
 20 26  9  0  0  0  0
 21 20  1  0  0  0  0
 21 16  1  0  0  0  0
 23 40  1  0  0  0  0
 24 28  1  0  0  0  0
 24 22  1  0  0  0  0
 25 21  1  0  0  0  0
 27 24  1  0  0  0  0
 28 29  2  0  0  0  0
 29 32  1  0  0  0  0
 29 26  9  0  0  0  0
 30 31  1  0  0  0  0
 31 28  1  0  0  0  0
 31 34  2  0  0  0  0
 32 33  1  0  0  0  0
 34 35  1  0  0  0  0
 35 32  2  0  0  0  0
 35 37  1  0  0  0  0
 36 34  1  0  0  0  0
 38 23  1  0  0  0  0
 39 23  1  0  0  0  0
 42 10  1  0  0  0  0
 44 26  1  0  0  0  0
 45 44  1  0  0  0  0
 46 26  1  0  0  0  0
M  CHG  1  26   2
M  END
$$$$
