
 OpenBabel02052520083D

 52 55  0  0  0  0  0  0  0  0999 V2000
    3.5660   -3.0407   -1.2265 C   0  0  0  0  0  0  0  0  0  0  0  0
    2.6939   -2.0090   -0.9387 C   0  5  0  0  0  0  0  0  0  0  0  0
    3.1464   -0.7479   -0.5168 N   0  5  0  0  0  0  0  0  0  0  0  0
    4.5305   -0.5940   -0.5238 C   0  0  0  0  0  0  0  0  0  0  0  0
    5.4326   -1.5823   -0.8238 C   0  0  0  0  0  0  0  0  0  0  0  0
    4.9715   -2.8832   -1.1751 C   0  0  0  0  0  0  0  0  0  0  0  0
    1.2078   -2.2027   -1.1791 C   0  0  0  0  0  0  0  0  0  0  0  0
    2.2817    0.6745    0.6503 Fe  0  0  0  0  0  0  0  0  0  0  0  0
    0.1559    0.1381    1.0236 N   0  0  0  0  0  0  0  0  0  0  0  0
    0.1320   -0.9003    2.0565 C   0  0  0  0  0  0  0  0  0  0  0  0
    0.6527   -2.1186    1.2675 C   0  0  0  0  0  0  0  0  0  0  0  0
    0.2594   -1.8571   -0.1204 N   0  0  0  0  0  0  0  0  0  0  0  0
   -0.4098   -0.5538   -0.2006 C   0  0  1  0  0  0  0  0  0  0  0  0
   -0.4279    1.4409    1.3692 C   0  0  0  0  0  0  0  0  0  0  0  0
    0.0281    2.4842    0.3763 C   0  0  2  0  0  3  0  0  0  0  0  0
    1.3772    2.3736    0.0258 N   0  0  0  0  0  2  0  0  0  0  0  0
    1.8671    3.3912   -0.7769 C   0  0  0  0  0  0  0  0  0  0  0  0
    1.1017    4.4268   -1.2591 C   0  0  0  0  0  0  0  0  0  0  0  0
   -0.2817    4.5054   -0.9426 C   0  0  0  0  0  0  0  0  0  0  0  0
   -0.7896    3.4847   -0.0935 C   0  0  0  0  0  0  0  0  0  0  0  0
   -1.8375    3.4757    0.2009 H   0  0  0  0  0  0  0  0  0  0  0  0
   -0.9189    5.2940   -1.3314 H   0  0  0  0  0  0  0  0  0  0  0  0
    1.5731    5.1792   -1.8918 H   0  0  0  0  0  0  0  0  0  0  0  0
    2.9264    3.3118   -1.0158 H   0  0  0  0  0  0  0  0  0  0  0  0
    4.8806    0.4028   -0.2554 H   0  0  0  0  0  0  0  0  0  0  0  0
    6.4970   -1.3508   -0.7912 H   0  0  0  0  0  0  0  0  0  0  0  0
    5.6516   -3.6965   -1.4117 H   0  0  0  0  0  0  0  0  0  0  0  0
    3.1381   -3.9974   -1.5279 H   0  0  0  0  0  0  0  0  0  0  0  0
    0.8031   -0.6119    2.8708 H   0  0  0  0  0  0  0  0  0  0  0  0
   -0.8878   -1.0688    2.4376 H   0  0  0  0  0  0  0  0  0  0  0  0
    1.7454   -2.1820    1.3577 H   0  0  0  0  0  0  0  0  0  0  0  0
    0.2222   -3.0585    1.6482 H   0  0  0  0  0  0  0  0  0  0  0  0
    1.0632   -3.2581   -1.4619 H   0  0  0  0  0  0  0  0  0  0  0  0
    0.9045   -1.6126   -2.0565 H   0  0  0  0  0  0  0  0  0  0  0  0
   -1.5238    1.3979    1.4330 H   0  0  0  0  0  0  0  0  0  0  0  0
   -0.0234    1.6884    2.3629 H   0  0  0  0  0  0  0  0  0  0  0  0
   -0.0409    0.0222   -1.0575 H   0  0  0  0  0  0  0  0  0  0  0  0
   -1.9167   -0.6412   -0.2565 C   0  0  0  0  0  0  0  0  0  0  0  0
   -2.6853    0.4097   -0.8320 C   0  0  0  0  0  0  0  0  0  0  0  0
   -2.6429   -1.7317    0.2940 C   0  0  0  0  0  0  0  0  0  0  0  0
   -4.0642    0.3886   -0.8428 C   0  0  0  0  0  0  0  0  0  0  0  0
   -2.1597    1.2597   -1.2669 H   0  0  0  0  0  0  0  0  0  0  0  0
   -4.0228   -1.7721    0.2949 C   0  0  0  0  0  0  0  0  0  0  0  0
   -2.0848   -2.5759    0.6951 H   0  0  0  0  0  0  0  0  0  0  0  0
   -4.8066   -0.7034   -0.2687 C   0  0  0  0  0  0  0  0  0  0  0  0
   -4.6285    1.2007   -1.2943 H   0  0  0  0  0  0  0  0  0  0  0  0
   -4.5395   -2.6316    0.7145 H   0  0  0  0  0  0  0  0  0  0  0  0
   -6.2256   -0.6901   -0.2966 C   0  0  0  0  0  0  0  0  0  0  0  0
   -6.9946    0.1806   -0.7724 O   0  0  0  0  0  0  0  0  0  0  0  0
   -6.8392   -1.8258    0.2964 O   0  0  0  0  0  0  0  0  0  0  0  0
   -7.7768   -1.6057    0.1632 H   0  0  0  0  0  0  0  0  0  0  0  0
    2.9253    0.6720    2.3735 F   0  0  0  0  0  0  0  0  0  0  0  0
  1  6  2  0  0  0  0
  1  2  1  0  0  0  0
  2  7  1  0  0  0  0
  2  3  1  0  0  0  0
  4  3  1  0  0  0  0
  4 25  1  0  0  0  0
  5 26  1  0  0  0  0
  5  4  2  0  0  0  0
  6  5  1  0  0  0  0
  7 12  1  0  0  0  0
  8 52  1  0  0  0  0
  9 14  1  0  0  0  0
  9 10  1  0  0  0  0
  9  8  9  0  0  0  0
 10 30  1  0  0  0  0
 10 29  1  0  0  0  0
 11 31  1  0  0  0  0
 11 32  1  0  0  0  0
 11 10  1  0  0  0  0
 12 11  1  0  0  0  0
 13 37  1  6  0  0  0
 13 12  1  0  0  0  0
 13  9  1  0  0  0  0
 14 35  1  0  0  0  0
 14 36  1  0  0  0  0
 15 14  1  1  0  0  0
 16 15  1  0  0  0  0
 17 16  1  0  0  0  0
 18 19  1  0  0  0  0
 18 17  2  0  0  0  0
 19 20  2  0  0  0  0
 20 21  1  0  0  0  0
 20 15  1  0  0  0  0
 22 19  1  0  0  0  0
 23 18  1  0  0  0  0
 24 17  1  0  0  0  0
 27  6  1  0  0  0  0
 28  1  1  0  0  0  0
 33  7  1  0  0  0  0
 34  7  1  0  0  0  0
 38 13  1  0  0  0  0
 38 40  1  0  0  0  0
 39 38  2  0  0  0  0
 40 43  2  0  0  0  0
 40 44  1  0  0  0  0
 41 39  1  0  0  0  0
 41 45  2  0  0  0  0
 42 39  1  0  0  0  0
 43 47  1  0  0  0  0
 45 43  1  0  0  0  0
 46 41  1  0  0  0  0
 48 45  1  0  0  0  0
 48 50  1  0  0  0  0
 49 48  2  0  0  0  0
 51 50  1  0  0  0  0
M  RAD  2  15   2  16   2
M  CHG  2   2  -1   3  -1
M  END
$$$$
