
 OpenBabel02052520083D

 42 47  0  0  0  0  0  0  0  0999 V2000
   -0.1371   -0.3322    1.0896 Fe  0  3  0  0  0  0  0  0  0  0  0  0
   -0.1499   -0.9369   -1.2099 N   0  0  1  0  0  0  0  0  0  0  0  0
    1.9618   -0.5493    0.5559 N   0  0  0  0  0  0  0  0  0  0  0  0
   -2.1996   -0.1843    0.4541 N   0  0  0  0  0  0  0  0  0  0  0  0
    0.9961    3.4558   -0.6990 N   0  0  0  0  0  0  0  0  0  0  0  0
    1.3537    4.4015   -0.6762 H   0  0  0  0  0  0  0  0  0  0  0  0
    0.1537    1.5530   -0.0238 N   0  0  0  0  0  0  0  0  0  0  0  0
    1.0399   -1.8069   -1.2954 C   0  0  0  0  0  0  0  0  0  0  0  0
    1.2850   -2.0718   -2.3334 H   0  0  0  0  0  0  0  0  0  0  0  0
    0.8022   -2.7257   -0.7508 H   0  0  0  0  0  0  0  0  0  0  0  0
    2.2322   -1.1781   -0.6028 C   0  0  0  0  0  0  0  0  0  0  0  0
    3.5379   -1.2872   -1.0750 C   0  0  0  0  0  0  0  0  0  0  0  0
    3.7360   -1.7920   -2.0152 H   0  0  0  0  0  0  0  0  0  0  0  0
    4.5776   -0.7443   -0.3165 C   0  0  0  0  0  0  0  0  0  0  0  0
    5.6037   -0.8215   -0.6633 H   0  0  0  0  0  0  0  0  0  0  0  0
    4.2839   -0.1012    0.8866 C   0  0  0  0  0  0  0  0  0  0  0  0
    5.0651    0.3308    1.5026 H   0  0  0  0  0  0  0  0  0  0  0  0
    2.9522   -0.0198    1.2860 C   0  0  0  0  0  0  0  0  0  0  0  0
    2.6385    0.4760    2.1993 H   0  0  0  0  0  0  0  0  0  0  0  0
   -1.4306   -1.6714   -1.2956 C   0  0  0  0  0  0  0  0  0  0  0  0
   -1.3156   -2.5838   -0.7037 H   0  0  0  0  0  0  0  0  0  0  0  0
   -1.6866   -1.9508   -2.3268 H   0  0  0  0  0  0  0  0  0  0  0  0
   -2.5404   -0.8551   -0.6631 C   0  0  0  0  0  0  0  0  0  0  0  0
   -3.8420   -0.8154   -1.1566 C   0  0  0  0  0  0  0  0  0  0  0  0
   -4.0963   -1.3546   -2.0636 H   0  0  0  0  0  0  0  0  0  0  0  0
   -4.8052   -0.0782   -0.4631 C   0  0  0  0  0  0  0  0  0  0  0  0
   -5.8270   -0.0367   -0.8282 H   0  0  0  0  0  0  0  0  0  0  0  0
   -4.4398    0.6066    0.6963 C   0  0  0  0  0  0  0  0  0  0  0  0
   -5.1600    1.1900    1.2595 H   0  0  0  0  0  0  0  0  0  0  0  0
   -3.1159    0.5301    1.1216 C   0  0  0  0  0  0  0  0  0  0  0  0
   -2.7510    1.0389    2.0083 H   0  0  0  0  0  0  0  0  0  0  0  0
   -0.1002    0.2402   -2.1178 C   0  0  0  0  0  0  0  0  0  0  0  0
   -1.1077    0.3984   -2.5182 H   0  0  0  0  0  0  0  0  0  0  0  0
    0.5519    0.0411   -2.9776 H   0  0  0  0  0  0  0  0  0  0  0  0
    0.3366    1.4807   -1.3871 C   0  0  0  0  0  0  0  0  0  0  0  0
    0.8657    2.6661   -1.8285 C   0  0  0  0  0  0  0  0  0  0  0  0
    1.1447    3.0178   -2.8098 H   0  0  0  0  0  0  0  0  0  0  0  0
    0.5616    2.7454    0.3699 C   0  0  0  0  0  0  0  0  0  0  0  0
    0.5694    3.0922    1.3924 H   0  0  0  0  0  0  0  0  0  0  0  0
   -0.0593    0.6275    2.6557 O   0  0  0  0  0  0  0  0  0  0  0  0
   -0.1224    0.1190    3.4815 H   0  0  0  0  0  0  0  0  0  0  0  0
   -0.2956   -2.0875    1.4168 F   0  0  0  0  0  0  0  0  0  0  0  0
  1 42  1  0  0  0  0
  1 40  1  0  0  0  0
  2 32  1  6  0  0  0
  2  1  9  0  0  0  0
  3 18  1  0  0  0  0
  3  1  9  0  0  0  0
  4 30  1  0  0  0  0
  4  1  9  0  0  0  0
  5  6  1  0  0  0  0
  5 38  1  0  0  0  0
  7 38  2  0  0  0  0
  7  1  9  0  0  0  0
  8  2  1  0  0  0  0
  8 10  1  0  0  0  0
  8 11  1  0  0  0  0
  9  8  1  0  0  0  0
 11  3  2  0  0  0  0
 12 11  1  0  0  0  0
 12 14  2  0  0  0  0
 13 12  1  0  0  0  0
 14 16  1  0  0  0  0
 15 14  1  0  0  0  0
 16 18  2  0  0  0  0
 16 17  1  0  0  0  0
 18 19  1  0  0  0  0
 20  2  1  0  0  0  0
 20 21  1  0  0  0  0
 20 23  1  0  0  0  0
 22 20  1  0  0  0  0
 23  4  2  0  0  0  0
 24 23  1  0  0  0  0
 24 26  2  0  0  0  0
 25 24  1  0  0  0  0
 26 28  1  0  0  0  0
 27 26  1  0  0  0  0
 28 30  2  0  0  0  0
 28 29  1  0  0  0  0
 30 31  1  0  0  0  0
 32 35  1  0  0  0  0
 33 32  1  0  0  0  0
 34 32  1  0  0  0  0
 35  7  1  0  0  0  0
 36 35  2  0  0  0  0
 36  5  1  0  0  0  0
 37 36  1  0  0  0  0
 38 39  1  0  0  0  0
 40 41  1  0  0  0  0
M  CHG  1   1   1
M  END
$$$$
