
 OpenBabel02052520083D

 42 47  0  0  0  0  0  0  0  0999 V2000
    0.1493    0.4022   -0.9201 Fe  0  3  0  0  0  0  0  0  0  0  0  0
    0.1523   -1.6170    0.2164 N   0  0  1  0  0  0  0  0  0  0  0  0
   -1.9678   -0.0935   -0.7021 N   0  0  0  0  0  0  0  0  0  0  0  0
    2.2108    0.0823   -0.3312 N   0  0  0  0  0  0  0  0  0  0  0  0
   -1.0718    1.7650    3.0404 N   0  0  0  0  0  0  0  0  0  0  0  0
   -1.4513    2.4260    3.7052 H   0  0  0  0  0  0  0  0  0  0  0  0
   -0.1752    0.9652    1.2102 N   0  0  0  0  0  0  0  0  0  0  0  0
   -1.0355   -2.2981   -0.3435 C   0  0  0  0  0  0  0  0  0  0  0  0
   -1.2659   -3.2259    0.1973 H   0  0  0  0  0  0  0  0  0  0  0  0
   -0.7977   -2.5494   -1.3817 H   0  0  0  0  0  0  0  0  0  0  0  0
   -2.2322   -1.3712   -0.3693 C   0  0  0  0  0  0  0  0  0  0  0  0
   -3.5358   -1.8025   -0.1369 C   0  0  0  0  0  0  0  0  0  0  0  0
   -3.7259   -2.8352    0.1378 H   0  0  0  0  0  0  0  0  0  0  0  0
   -4.5832   -0.8885   -0.2714 C   0  0  0  0  0  0  0  0  0  0  0  0
   -5.6081   -1.2034   -0.0998 H   0  0  0  0  0  0  0  0  0  0  0  0
   -4.2972    0.4300   -0.6259 C   0  0  0  0  0  0  0  0  0  0  0  0
   -5.0834    1.1679   -0.7434 H   0  0  0  0  0  0  0  0  0  0  0  0
   -2.9670    0.7906   -0.8276 C   0  0  0  0  0  0  0  0  0  0  0  0
   -2.6684    1.7990   -1.0966 H   0  0  0  0  0  0  0  0  0  0  0  0
    1.4355   -2.2090   -0.2294 C   0  0  0  0  0  0  0  0  0  0  0  0
    1.3349   -2.4273   -1.2964 H   0  0  0  0  0  0  0  0  0  0  0  0
    1.6670   -3.1416    0.3025 H   0  0  0  0  0  0  0  0  0  0  0  0
    2.5490   -1.1951   -0.0657 C   0  0  0  0  0  0  0  0  0  0  0  0
    3.8493   -1.5368    0.2958 C   0  0  0  0  0  0  0  0  0  0  0  0
    4.0984   -2.5701    0.5159 H   0  0  0  0  0  0  0  0  0  0  0  0
    4.8174   -0.5319    0.3637 C   0  0  0  0  0  0  0  0  0  0  0  0
    5.8388   -0.7760    0.6393 H   0  0  0  0  0  0  0  0  0  0  0  0
    4.4561    0.7852    0.0799 C   0  0  0  0  0  0  0  0  0  0  0  0
    5.1792    1.5923    0.1229 H   0  0  0  0  0  0  0  0  0  0  0  0
    3.1326    1.0532   -0.2619 C   0  0  0  0  0  0  0  0  0  0  0  0
    2.7788    2.0525   -0.4939 H   0  0  0  0  0  0  0  0  0  0  0  0
    0.0978   -1.4521    1.6982 C   0  0  0  0  0  0  0  0  0  0  0  0
    1.1105   -1.6050    2.0861 H   0  0  0  0  0  0  0  0  0  0  0  0
   -0.5337   -2.2282    2.1477 H   0  0  0  0  0  0  0  0  0  0  0  0
   -0.3711   -0.0795    2.0873 C   0  0  0  0  0  0  0  0  0  0  0  0
   -0.9343    0.4027    3.2403 C   0  0  0  0  0  0  0  0  0  0  0  0
   -1.2313   -0.0758    4.1609 H   0  0  0  0  0  0  0  0  0  0  0  0
   -0.6088    2.0635    1.8026 C   0  0  0  0  0  0  0  0  0  0  0  0
   -0.6148    3.0482    1.3591 H   0  0  0  0  0  0  0  0  0  0  0  0
    0.3158   -0.5764   -2.4626 O   0  0  0  0  0  0  0  0  0  0  0  0
    0.3487   -0.0845   -3.3000 H   0  0  0  0  0  0  0  0  0  0  0  0
    0.0907    2.5948   -1.5290 Cl  0  0  0  0  0  0  0  0  0  0  0  0
  2  8  1  6  0  0  0
  2 32  1  0  0  0  0
  2  1  9  0  0  0  0
  3 11  1  0  0  0  0
  3  1  9  0  0  0  0
  4 30  2  0  0  0  0
  4 23  1  0  0  0  0
  4  1  9  0  0  0  0
  5 36  1  0  0  0  0
  5  6  1  0  0  0  0
  7 38  2  0  0  0  0
  7 35  1  0  0  0  0
  7  1  9  0  0  0  0
  8  9  1  0  0  0  0
 10  8  1  0  0  0  0
 11  8  1  0  0  0  0
 11 12  2  0  0  0  0
 12 13  1  0  0  0  0
 14 12  1  0  0  0  0
 14 15  1  0  0  0  0
 16 14  2  0  0  0  0
 17 16  1  0  0  0  0
 18  3  2  0  0  0  0
 18 16  1  0  0  0  0
 19 18  1  0  0  0  0
 20 23  1  0  0  0  0
 20  2  1  0  0  0  0
 20 22  1  0  0  0  0
 21 20  1  0  0  0  0
 23 24  2  0  0  0  0
 24 26  1  0  0  0  0
 24 25  1  0  0  0  0
 26 27  1  0  0  0  0
 28 29  1  0  0  0  0
 28 26  2  0  0  0  0
 30 28  1  0  0  0  0
 31 30  1  0  0  0  0
 32 33  1  0  0  0  0
 32 35  1  0  0  0  0
 32 34  1  0  0  0  0
 35 36  2  0  0  0  0
 36 37  1  0  0  0  0
 38  5  1  0  0  0  0
 39 38  1  0  0  0  0
 40  1  1  0  0  0  0
 41 40  1  0  0  0  0
 42  1  1  0  0  0  0
M  CHG  1   1   1
M  END
$$$$
