
 OpenBabel02052520083D

 44 49  0  0  0  0  0  0  0  0999 V2000
    0.1291   -0.0138    0.9813 Fe  0  3  0  0  0  0  0  0  0  0  0  0
    0.1578    0.1545   -1.4247 N   0  0  1  0  0  0  0  0  0  0  0  0
   -1.9395    0.3363    0.3877 N   0  0  0  0  0  0  0  0  0  0  0  0
    2.1746   -0.3382    0.3569 N   0  0  0  0  0  0  0  0  0  0  0  0
   -1.3908   -3.8980    0.0030 N   0  0  0  0  0  0  0  0  0  0  0  0
   -1.8480   -4.7731    0.2223 H   0  0  0  0  0  0  0  0  0  0  0  0
   -0.3374   -2.0008    0.2669 N   0  0  0  0  0  0  0  0  0  0  0  0
   -0.9838    1.0372   -1.7381 C   0  0  0  0  0  0  0  0  0  0  0  0
   -1.2545    0.9902   -2.8022 H   0  0  0  0  0  0  0  0  0  0  0  0
   -0.6808    2.0684   -1.5278 H   0  0  0  0  0  0  0  0  0  0  0  0
   -2.1911    0.7307   -0.8736 C   0  0  0  0  0  0  0  0  0  0  0  0
   -3.4975    0.9140   -1.3235 C   0  0  0  0  0  0  0  0  0  0  0  0
   -3.6800    1.2275   -2.3466 H   0  0  0  0  0  0  0  0  0  0  0  0
   -4.5553    0.6971   -0.4392 C   0  0  0  0  0  0  0  0  0  0  0  0
   -5.5801    0.8403   -0.7682 H   0  0  0  0  0  0  0  0  0  0  0  0
   -4.2807    0.2917    0.8679 C   0  0  0  0  0  0  0  0  0  0  0  0
   -5.0754    0.1130    1.5841 H   0  0  0  0  0  0  0  0  0  0  0  0
   -2.9515    0.1157    1.2404 C   0  0  0  0  0  0  0  0  0  0  0  0
   -2.6572   -0.2116    2.2327 H   0  0  0  0  0  0  0  0  0  0  0  0
    1.4761    0.7661   -1.6963 C   0  0  0  0  0  0  0  0  0  0  0  0
    1.4265    1.8203   -1.4083 H   0  0  0  0  0  0  0  0  0  0  0  0
    1.7381    0.7301   -2.7630 H   0  0  0  0  0  0  0  0  0  0  0  0
    2.5502    0.0928   -0.8633 C   0  0  0  0  0  0  0  0  0  0  0  0
    3.8650   -0.0463   -1.3022 C   0  0  0  0  0  0  0  0  0  0  0  0
    4.1456    0.2993   -2.2922 H   0  0  0  0  0  0  0  0  0  0  0  0
    4.8061   -0.6278   -0.4502 C   0  0  0  0  0  0  0  0  0  0  0  0
    5.8370   -0.7406   -0.7716 H   0  0  0  0  0  0  0  0  0  0  0  0
    4.4055   -1.0673    0.8122 C   0  0  0  0  0  0  0  0  0  0  0  0
    5.1063   -1.5272    1.5003 H   0  0  0  0  0  0  0  0  0  0  0  0
    3.0721   -0.9064    1.1773 C   0  0  0  0  0  0  0  0  0  0  0  0
    2.6841   -1.2267    2.1391 H   0  0  0  0  0  0  0  0  0  0  0  0
    0.0432   -1.1974   -2.0420 C   0  0  0  0  0  0  0  0  0  0  0  0
    1.0524   -1.5206   -2.3198 H   0  0  0  0  0  0  0  0  0  0  0  0
   -0.5418   -1.1546   -2.9695 H   0  0  0  0  0  0  0  0  0  0  0  0
   -0.5325   -2.1971   -1.0821 C   0  0  0  0  0  0  0  0  0  0  0  0
   -1.1939   -3.3831   -1.2674 C   0  0  0  0  0  0  0  0  0  0  0  0
   -1.5231   -3.9018   -2.1545 H   0  0  0  0  0  0  0  0  0  0  0  0
   -0.8659   -3.0318    0.9017 C   0  0  0  0  0  0  0  0  0  0  0  0
   -0.8950   -3.1477    1.9747 H   0  0  0  0  0  0  0  0  0  0  0  0
    0.0011   -0.6781    2.6909 O   0  0  0  0  0  0  0  0  0  0  0  0
    0.1146   -0.0385    3.4139 H   0  0  0  0  0  0  0  0  0  0  0  0
    0.4178    1.9044    1.1627 N   0  0  0  0  0  0  0  0  0  0  0  0
    0.4294    3.0167    0.7162 C   0  0  0  0  0  0  0  0  0  0  0  0
    0.4449    4.4752    0.0575 S   0  0  0  0  0  0  0  0  0  0  0  0
  1 42  1  0  0  0  0
  1 40  1  0  0  0  0
  2 32  1  6  0  0  0
  2  1  9  0  0  0  0
  3 18  1  0  0  0  0
  3  1  9  0  0  0  0
  4 30  1  0  0  0  0
  4  1  9  0  0  0  0
  5  6  1  0  0  0  0
  5 38  1  0  0  0  0
  7 38  2  0  0  0  0
  7  1  9  0  0  0  0
  8 10  1  0  0  0  0
  8  2  1  0  0  0  0
  8 11  1  0  0  0  0
  9  8  1  0  0  0  0
 11  3  2  0  0  0  0
 12 11  1  0  0  0  0
 12 14  2  0  0  0  0
 13 12  1  0  0  0  0
 14 16  1  0  0  0  0
 15 14  1  0  0  0  0
 16 18  2  0  0  0  0
 16 17  1  0  0  0  0
 18 19  1  0  0  0  0
 20  2  1  0  0  0  0
 20 21  1  0  0  0  0
 20 23  1  0  0  0  0
 22 20  1  0  0  0  0
 23  4  2  0  0  0  0
 24 23  1  0  0  0  0
 24 26  2  0  0  0  0
 25 24  1  0  0  0  0
 26 28  1  0  0  0  0
 27 26  1  0  0  0  0
 28 30  2  0  0  0  0
 28 29  1  0  0  0  0
 30 31  1  0  0  0  0
 32 35  1  0  0  0  0
 33 32  1  0  0  0  0
 34 32  1  0  0  0  0
 35  7  1  0  0  0  0
 36 35  2  0  0  0  0
 36  5  1  0  0  0  0
 37 36  1  0  0  0  0
 38 39  1  0  0  0  0
 40 41  1  0  0  0  0
 43 42  2  0  0  0  0
 44 43  2  0  0  0  0
M  CHG  1   1   1
M  END
$$$$
