
 OpenBabel02052520083D

 48 53  0  0  0  0  0  0  0  0999 V2000
    0.1909    0.5769   -0.7897 Fe  0  3  0  0  0  0  0  0  0  0  0  0
    0.5476   -1.7156   -0.2483 N   0  0  2  0  0  0  0  0  0  0  0  0
   -0.4100    0.3395    1.4406 N   0  0  0  0  0  0  0  0  0  0  0  0
    4.0725   -0.7361    0.1038 N   0  0  0  0  0  0  0  0  0  0  0  0
    2.2155    0.4378   -0.0744 N   0  0  0  0  0  0  0  0  0  0  0  0
   -3.0268   -2.1369   -1.0144 N   0  0  0  0  0  0  0  0  0  0  0  0
   -1.7729   -0.3278   -0.9168 N   0  0  0  0  0  0  0  0  0  0  0  0
    0.4017   -1.9518    1.2066 C   0  0  0  0  0  0  0  0  0  0  0  0
    1.4047   -1.9322    1.6470 H   0  0  0  0  0  0  0  0  0  0  0  0
   -0.0040   -2.9545    1.3975 H   0  0  0  0  0  0  0  0  0  0  0  0
   -0.4192   -0.9065    1.9391 C   0  0  0  0  0  0  0  0  0  0  0  0
   -1.0778   -1.2195    3.1282 C   0  0  0  0  0  0  0  0  0  0  0  0
   -1.0754   -2.2395    3.5013 H   0  0  0  0  0  0  0  0  0  0  0  0
   -1.7282   -0.2026    3.8282 C   0  0  0  0  0  0  0  0  0  0  0  0
   -2.2470   -0.4212    4.7567 H   0  0  0  0  0  0  0  0  0  0  0  0
   -1.7027    1.0937    3.3150 C   0  0  0  0  0  0  0  0  0  0  0  0
   -2.1936    1.9155    3.8250 H   0  0  0  0  0  0  0  0  0  0  0  0
   -1.0386    1.3169    2.1109 C   0  0  0  0  0  0  0  0  0  0  0  0
   -1.0076    2.2976    1.6494 H   0  0  0  0  0  0  0  0  0  0  0  0
    1.9401   -1.9300   -0.7076 C   0  0  0  0  0  0  0  0  0  0  0  0
    1.9294   -1.9088   -1.8009 H   0  0  0  0  0  0  0  0  0  0  0  0
    2.3472   -2.8952   -0.3743 H   0  0  0  0  0  0  0  0  0  0  0  0
    2.7537   -0.7685   -0.2141 C   0  0  0  0  0  0  0  0  0  0  0  0
    4.3786    0.5717    0.4481 C   0  0  0  0  0  0  0  0  0  0  0  0
    5.3777    0.8590    0.7386 H   0  0  0  0  0  0  0  0  0  0  0  0
    3.2157    1.2860    0.3366 C   0  0  0  0  0  0  0  0  0  0  0  0
    3.0288    2.3330    0.5207 H   0  0  0  0  0  0  0  0  0  0  0  0
    5.0294   -1.8366    0.0141 C   0  0  0  0  0  0  0  0  0  0  0  0
    4.5642   -2.7654    0.3519 H   0  0  0  0  0  0  0  0  0  0  0  0
    5.8793   -1.6184    0.6625 H   0  0  0  0  0  0  0  0  0  0  0  0
    5.3823   -1.9595   -1.0140 H   0  0  0  0  0  0  0  0  0  0  0  0
   -0.4677   -2.4149   -1.0659 C   0  0  0  0  0  0  0  0  0  0  0  0
   -0.5882   -3.4650   -0.7644 H   0  0  0  0  0  0  0  0  0  0  0  0
   -0.1216   -2.3877   -2.1034 H   0  0  0  0  0  0  0  0  0  0  0  0
   -1.7582   -1.6525   -0.9832 C   0  0  0  0  0  0  0  0  0  0  0  0
   -3.8818   -1.0466   -0.9726 C   0  0  0  0  0  0  0  0  0  0  0  0
   -4.9539   -1.1696   -0.9938 H   0  0  0  0  0  0  0  0  0  0  0  0
   -3.0879    0.0678   -0.9051 C   0  0  0  0  0  0  0  0  0  0  0  0
   -3.3643    1.1096   -0.8455 H   0  0  0  0  0  0  0  0  0  0  0  0
   -3.4367   -3.5316   -1.1581 C   0  0  0  0  0  0  0  0  0  0  0  0
   -3.3712   -3.8500   -2.2027 H   0  0  0  0  0  0  0  0  0  0  0  0
   -4.4682   -3.6319   -0.8170 H   0  0  0  0  0  0  0  0  0  0  0  0
   -2.8034   -4.1738   -0.5419 H   0  0  0  0  0  0  0  0  0  0  0  0
    0.6458    0.0205   -2.4909 O   0  0  0  0  0  0  0  0  0  0  0  0
    0.5770    0.6815   -3.1987 H   0  0  0  0  0  0  0  0  0  0  0  0
   -0.2019    2.4473   -0.7974 N   0  0  0  0  0  0  0  0  0  0  0  0
   -0.5384    3.5995   -0.7542 C   0  0  0  0  0  0  0  0  0  0  0  0
   -0.9927    5.1256   -0.6738 S   0  0  0  0  0  0  0  0  0  0  0  0
  2 32  1  6  0  0  0
  2  8  1  0  0  0  0
  2  1  9  0  0  0  0
  3 11  2  0  0  0  0
  3 18  1  0  0  0  0
  3  1  9  0  0  0  0
  4 24  1  0  0  0  0
  5 26  1  0  0  0  0
  5  1  9  0  0  0  0
  6 35  1  0  0  0  0
  6 36  1  0  0  0  0
  7 38  1  0  0  0  0
  7  1  9  0  0  0  0
  8 10  1  0  0  0  0
  8  9  1  0  0  0  0
  8 11  1  0  0  0  0
 11 12  1  0  0  0  0
 12 13  1  0  0  0  0
 12 14  2  0  0  0  0
 14 15  1  0  0  0  0
 16 17  1  0  0  0  0
 16 14  1  0  0  0  0
 18 16  2  0  0  0  0
 19 18  1  0  0  0  0
 20 22  1  0  0  0  0
 20  2  1  0  0  0  0
 20 23  1  0  0  0  0
 21 20  1  0  0  0  0
 23  5  2  0  0  0  0
 23  4  1  0  0  0  0
 24 25  1  0  0  0  0
 26 24  2  0  0  0  0
 26 27  1  0  0  0  0
 28  4  1  0  0  0  0
 28 29  1  0  0  0  0
 28 30  1  0  0  0  0
 31 28  1  0  0  0  0
 32 35  1  0  0  0  0
 32 33  1  0  0  0  0
 34 32  1  0  0  0  0
 35  7  2  0  0  0  0
 36 38  2  0  0  0  0
 37 36  1  0  0  0  0
 38 39  1  0  0  0  0
 40  6  1  0  0  0  0
 40 42  1  0  0  0  0
 40 43  1  0  0  0  0
 41 40  1  0  0  0  0
 44  1  1  0  0  0  0
 45 44  1  0  0  0  0
 46  1  1  0  0  0  0
 46 47  2  0  0  0  0
 47 48  2  0  0  0  0
M  CHG  1   1   1
M  END
$$$$
