
 OpenBabel02052520083D

 42 47  0  0  0  0  0  0  0  0999 V2000
   -0.1328   -0.4736    0.8768 Fe  0  3  0  0  0  0  0  0  0  0  0  0
   -0.1393   -0.3036   -1.5107 N   0  0  1  0  0  0  0  0  0  0  0  0
    1.9493   -0.6047    0.2866 N   0  0  0  0  0  0  0  0  0  0  0  0
   -2.1818   -0.1487    0.2975 N   0  0  0  0  0  0  0  0  0  0  0  0
    1.1056    3.6193    0.4785 N   0  0  0  0  0  0  0  0  0  0  0  0
    1.4857    4.4899    0.8256 H   0  0  0  0  0  0  0  0  0  0  0  0
    0.2149    1.6240    0.4557 N   0  0  0  0  0  0  0  0  0  0  0  0
    1.0409   -1.0981   -1.9079 C   0  0  0  0  0  0  0  0  0  0  0  0
    1.3028   -0.9456   -2.9641 H   0  0  0  0  0  0  0  0  0  0  0  0
    0.7834   -2.1535   -1.7704 H   0  0  0  0  0  0  0  0  0  0  0  0
    2.2291   -0.8118   -1.0132 C   0  0  0  0  0  0  0  0  0  0  0  0
    3.5445   -0.8350   -1.4713 C   0  0  0  0  0  0  0  0  0  0  0  0
    3.7497   -0.9972   -2.5248 H   0  0  0  0  0  0  0  0  0  0  0  0
    4.5830   -0.6560   -0.5555 C   0  0  0  0  0  0  0  0  0  0  0  0
    5.6156   -0.6760   -0.8904 H   0  0  0  0  0  0  0  0  0  0  0  0
    4.2791   -0.4495    0.7909 C   0  0  0  0  0  0  0  0  0  0  0  0
    5.0584   -0.3084    1.5320 H   0  0  0  0  0  0  0  0  0  0  0  0
    2.9406   -0.4242    1.1716 C   0  0  0  0  0  0  0  0  0  0  0  0
    2.6225   -0.2559    2.1954 H   0  0  0  0  0  0  0  0  0  0  0  0
   -1.4297   -0.9287   -1.8745 C   0  0  0  0  0  0  0  0  0  0  0  0
   -1.3379   -2.0038   -1.6931 H   0  0  0  0  0  0  0  0  0  0  0  0
   -1.6815   -0.7790   -2.9334 H   0  0  0  0  0  0  0  0  0  0  0  0
   -2.5329   -0.4034   -0.9782 C   0  0  0  0  0  0  0  0  0  0  0  0
   -3.8459   -0.2329   -1.4100 C   0  0  0  0  0  0  0  0  0  0  0  0
   -4.1074   -0.4349   -2.4439 H   0  0  0  0  0  0  0  0  0  0  0  0
   -4.8101    0.1923   -0.4935 C   0  0  0  0  0  0  0  0  0  0  0  0
   -5.8404    0.3265   -0.8086 H   0  0  0  0  0  0  0  0  0  0  0  0
   -4.4343    0.4472    0.8259 C   0  0  0  0  0  0  0  0  0  0  0  0
   -5.1543    0.7805    1.5653 H   0  0  0  0  0  0  0  0  0  0  0  0
   -3.1008    0.2675    1.1820 C   0  0  0  0  0  0  0  0  0  0  0  0
   -2.7299    0.4499    2.1854 H   0  0  0  0  0  0  0  0  0  0  0  0
   -0.0693    1.1188   -1.9525 C   0  0  0  0  0  0  0  0  0  0  0  0
   -1.0784    1.4255   -2.2485 H   0  0  0  0  0  0  0  0  0  0  0  0
    0.5639    1.2172   -2.8430 H   0  0  0  0  0  0  0  0  0  0  0  0
    0.4052    2.0201   -0.8486 C   0  0  0  0  0  0  0  0  0  0  0  0
    0.9654    3.2712   -0.8546 C   0  0  0  0  0  0  0  0  0  0  0  0
    1.2586    3.9336   -1.6544 H   0  0  0  0  0  0  0  0  0  0  0  0
    0.6471    2.5965    1.2381 C   0  0  0  0  0  0  0  0  0  0  0  0
    0.6551    2.5652    2.3172 H   0  0  0  0  0  0  0  0  0  0  0  0
   -0.0592   -0.0594    2.6625 O   0  0  0  0  0  0  0  0  0  0  0  0
   -0.1440   -0.8115    3.2734 H   0  0  0  0  0  0  0  0  0  0  0  0
   -0.3652   -2.7519    0.8022 Cl  0  0  0  0  0  0  0  0  0  0  0  0
  1 40  1  0  0  0  0
  2 32  1  6  0  0  0
  2  1  9  0  0  0  0
  3 18  1  0  0  0  0
  3  1  9  0  0  0  0
  4 30  1  0  0  0  0
  4  1  9  0  0  0  0
  5  6  1  0  0  0  0
  5 38  1  0  0  0  0
  7 38  2  0  0  0  0
  7  1  9  0  0  0  0
  8 10  1  0  0  0  0
  8  2  1  0  0  0  0
  8 11  1  0  0  0  0
  9  8  1  0  0  0  0
 11  3  2  0  0  0  0
 12 11  1  0  0  0  0
 12 14  2  0  0  0  0
 13 12  1  0  0  0  0
 14 16  1  0  0  0  0
 15 14  1  0  0  0  0
 16 18  2  0  0  0  0
 16 17  1  0  0  0  0
 18 19  1  0  0  0  0
 20 21  1  0  0  0  0
 20  2  1  0  0  0  0
 20 23  1  0  0  0  0
 22 20  1  0  0  0  0
 23  4  2  0  0  0  0
 24 23  1  0  0  0  0
 24 26  2  0  0  0  0
 25 24  1  0  0  0  0
 26 28  1  0  0  0  0
 27 26  1  0  0  0  0
 28 30  2  0  0  0  0
 28 29  1  0  0  0  0
 30 31  1  0  0  0  0
 32 35  1  0  0  0  0
 33 32  1  0  0  0  0
 34 32  1  0  0  0  0
 35  7  1  0  0  0  0
 36 35  2  0  0  0  0
 36  5  1  0  0  0  0
 37 36  1  0  0  0  0
 38 39  1  0  0  0  0
 40 41  1  0  0  0  0
 42  1  1  0  0  0  0
M  CHG  1   1   1
M  END
$$$$
