
 OpenBabel02052520083D

 42 47  0  0  0  0  0  0  0  0999 V2000
   -0.1228   -0.3227    0.7552 Fe  0  3  0  0  0  0  0  0  0  0  0  0
   -0.0960    0.2369   -1.5750 N   0  0  1  0  0  0  0  0  0  0  0  0
    1.9453   -0.4874    0.1500 N   0  0  0  0  0  0  0  0  0  0  0  0
   -2.1431    0.1758    0.2276 N   0  0  0  0  0  0  0  0  0  0  0  0
    1.3798    3.6850    1.0394 N   0  0  0  0  0  0  0  0  0  0  0  0
    1.8177    4.4572    1.5241 H   0  0  0  0  0  0  0  0  0  0  0  0
    0.3486    1.7903    0.6910 N   0  0  0  0  0  0  0  0  0  0  0  0
    1.0484   -0.5332   -2.1035 C   0  0  0  0  0  0  0  0  0  0  0  0
    1.3344   -0.2048   -3.1124 H   0  0  0  0  0  0  0  0  0  0  0  0
    0.7360   -1.5813   -2.1641 H   0  0  0  0  0  0  0  0  0  0  0  0
    2.2350   -0.4791   -1.1642 C   0  0  0  0  0  0  0  0  0  0  0  0
    3.5544   -0.5032   -1.6105 C   0  0  0  0  0  0  0  0  0  0  0  0
    3.7674   -0.4908   -2.6748 H   0  0  0  0  0  0  0  0  0  0  0  0
    4.5858   -0.5528   -0.6711 C   0  0  0  0  0  0  0  0  0  0  0  0
    5.6209   -0.5782   -0.9977 H   0  0  0  0  0  0  0  0  0  0  0  0
    4.2715   -0.5671    0.6888 C   0  0  0  0  0  0  0  0  0  0  0  0
    5.0448   -0.6069    1.4481 H   0  0  0  0  0  0  0  0  0  0  0  0
    2.9309   -0.5262    1.0595 C   0  0  0  0  0  0  0  0  0  0  0  0
    2.6060   -0.5214    2.0949 H   0  0  0  0  0  0  0  0  0  0  0  0
   -1.4117   -0.2461   -2.0484 C   0  0  0  0  0  0  0  0  0  0  0  0
   -1.3762   -1.3400   -2.0659 H   0  0  0  0  0  0  0  0  0  0  0  0
   -1.6444    0.1051   -3.0630 H   0  0  0  0  0  0  0  0  0  0  0  0
   -2.4962    0.1637   -1.0730 C   0  0  0  0  0  0  0  0  0  0  0  0
   -3.7978    0.4631   -1.4674 C   0  0  0  0  0  0  0  0  0  0  0  0
   -4.0604    0.4557   -2.5206 H   0  0  0  0  0  0  0  0  0  0  0  0
   -4.7495    0.7625   -0.4904 C   0  0  0  0  0  0  0  0  0  0  0  0
   -5.7711    0.9933   -0.7765 H   0  0  0  0  0  0  0  0  0  0  0  0
   -4.3722    0.7671    0.8531 C   0  0  0  0  0  0  0  0  0  0  0  0
   -5.0824    0.9970    1.6398 H   0  0  0  0  0  0  0  0  0  0  0  0
   -3.0505    0.4709    1.1718 C   0  0  0  0  0  0  0  0  0  0  0  0
   -2.6795    0.4586    2.1915 H   0  0  0  0  0  0  0  0  0  0  0  0
    0.0479    1.7097   -1.7644 C   0  0  0  0  0  0  0  0  0  0  0  0
   -0.9465    2.1139   -1.9826 H   0  0  0  0  0  0  0  0  0  0  0  0
    0.6763    1.9287   -2.6368 H   0  0  0  0  0  0  0  0  0  0  0  0
    0.5792    2.3805   -0.5309 C   0  0  0  0  0  0  0  0  0  0  0  0
    1.2275    3.5718   -0.3325 C   0  0  0  0  0  0  0  0  0  0  0  0
    1.5743    4.3339   -1.0132 H   0  0  0  0  0  0  0  0  0  0  0  0
    0.8426    2.5870    1.6216 C   0  0  0  0  0  0  0  0  0  0  0  0
    0.8396    2.3783    2.6809 H   0  0  0  0  0  0  0  0  0  0  0  0
   -0.0484   -0.2307    2.5838 O   0  0  0  0  0  0  0  0  0  0  0  0
   -0.1811   -1.0695    3.0577 H   0  0  0  0  0  0  0  0  0  0  0  0
   -0.4974   -2.7489    0.3287 Br  0  0  0  0  0  0  0  0  0  0  0  0
  1 40  1  0  0  0  0
  2  8  1  6  0  0  0
  2  1  9  0  0  0  0
  3 18  1  0  0  0  0
  3  1  9  0  0  0  0
  4 30  1  0  0  0  0
  4  1  9  0  0  0  0
  5  6  1  0  0  0  0
  5 38  1  0  0  0  0
  7 38  2  0  0  0  0
  7  1  9  0  0  0  0
  8 11  1  0  0  0  0
  9  8  1  0  0  0  0
 10  8  1  0  0  0  0
 11  3  2  0  0  0  0
 12 11  1  0  0  0  0
 12 14  2  0  0  0  0
 13 12  1  0  0  0  0
 14 16  1  0  0  0  0
 15 14  1  0  0  0  0
 16 18  2  0  0  0  0
 16 17  1  0  0  0  0
 18 19  1  0  0  0  0
 20  2  1  0  0  0  0
 20 23  1  0  0  0  0
 21 20  1  0  0  0  0
 22 20  1  0  0  0  0
 23  4  2  0  0  0  0
 24 23  1  0  0  0  0
 24 26  2  0  0  0  0
 25 24  1  0  0  0  0
 26 28  1  0  0  0  0
 27 26  1  0  0  0  0
 28 30  2  0  0  0  0
 28 29  1  0  0  0  0
 30 31  1  0  0  0  0
 32  2  1  0  0  0  0
 32 35  1  0  0  0  0
 33 32  1  0  0  0  0
 34 32  1  0  0  0  0
 35 36  2  0  0  0  0
 35  7  1  0  0  0  0
 36  5  1  0  0  0  0
 37 36  1  0  0  0  0
 38 39  1  0  0  0  0
 40 41  1  0  0  0  0
 42  1  1  0  0  0  0
M  CHG  1   1   1
M  END
$$$$
