
 OpenBabel02052520083D

 46 51  0  0  0  0  0  0  0  0999 V2000
    0.2443    0.2074   -1.1806 Fe  0  3  0  0  0  0  0  0  0  0  0  0
    0.2597   -1.2977    0.6546 N   0  0  2  0  0  0  0  0  0  0  0  0
   -0.3918    1.4579    0.6617 N   0  0  0  0  0  0  0  0  0  0  0  0
    3.8887   -0.7090    0.6500 N   0  0  0  0  0  0  0  0  0  0  0  0
    2.2135    0.3056   -0.3577 N   0  0  0  0  0  0  0  0  0  0  0  0
   -3.3340   -1.6819   -0.0592 N   0  0  0  0  0  0  0  0  0  0  0  0
   -1.8166   -0.3467   -0.9322 N   0  0  0  0  0  0  0  0  0  0  0  0
    0.0792   -0.5748    1.9348 C   0  0  0  0  0  0  0  0  0  0  0  0
    1.0741   -0.4071    2.3620 H   0  0  0  0  0  0  0  0  0  0  0  0
   -0.4696   -1.1963    2.6551 H   0  0  0  0  0  0  0  0  0  0  0  0
   -0.5791    0.7863    1.8093 C   0  0  0  0  0  0  0  0  0  0  0  0
   -1.2695    1.3435    2.8853 C   0  0  0  0  0  0  0  0  0  0  0  0
   -1.4126    0.7707    3.7969 H   0  0  0  0  0  0  0  0  0  0  0  0
   -1.7609    2.6446    2.7724 C   0  0  0  0  0  0  0  0  0  0  0  0
   -2.3006    3.1005    3.5970 H   0  0  0  0  0  0  0  0  0  0  0  0
   -1.5491    3.3447    1.5856 C   0  0  0  0  0  0  0  0  0  0  0  0
   -1.9115    4.3584    1.4529 H   0  0  0  0  0  0  0  0  0  0  0  0
   -0.8671    2.7084    0.5506 C   0  0  0  0  0  0  0  0  0  0  0  0
   -0.6958    3.1896   -0.4062 H   0  0  0  0  0  0  0  0  0  0  0  0
    1.6076   -1.9052    0.5472 C   0  0  0  0  0  0  0  0  0  0  0  0
    1.6029   -2.5569   -0.3310 H   0  0  0  0  0  0  0  0  0  0  0  0
    1.8686   -2.5025    1.4321 H   0  0  0  0  0  0  0  0  0  0  0  0
    2.5783   -0.7846    0.3082 C   0  0  0  0  0  0  0  0  0  0  0  0
    4.3728    0.4925    0.1540 C   0  0  0  0  0  0  0  0  0  0  0  0
    5.4024    0.7850    0.2928 H   0  0  0  0  0  0  0  0  0  0  0  0
    3.3205    1.1122   -0.4656 C   0  0  0  0  0  0  0  0  0  0  0  0
    3.2768    2.0626   -0.9752 H   0  0  0  0  0  0  0  0  0  0  0  0
    4.6852   -1.7305    1.3260 C   0  0  0  0  0  0  0  0  0  0  0  0
    4.0889   -2.2168    2.1011 H   0  0  0  0  0  0  0  0  0  0  0  0
    5.5449   -1.2522    1.7981 H   0  0  0  0  0  0  0  0  0  0  0  0
    5.0367   -2.4815    0.6125 H   0  0  0  0  0  0  0  0  0  0  0  0
   -0.8475   -2.2262    0.3360 C   0  0  0  0  0  0  0  0  0  0  0  0
   -1.1275   -2.8447    1.2002 H   0  0  0  0  0  0  0  0  0  0  0  0
   -0.4976   -2.8852   -0.4643 H   0  0  0  0  0  0  0  0  0  0  0  0
   -2.0064   -1.4282   -0.1875 C   0  0  0  0  0  0  0  0  0  0  0  0
   -4.0086   -0.7038   -0.7740 C   0  0  0  0  0  0  0  0  0  0  0  0
   -5.0862   -0.6912   -0.8326 H   0  0  0  0  0  0  0  0  0  0  0  0
   -3.0524    0.1214   -1.3044 C   0  0  0  0  0  0  0  0  0  0  0  0
   -3.1593    1.0048   -1.9154 H   0  0  0  0  0  0  0  0  0  0  0  0
   -3.9549   -2.8174    0.6185 C   0  0  0  0  0  0  0  0  0  0  0  0
   -3.9351   -3.7071   -0.0178 H   0  0  0  0  0  0  0  0  0  0  0  0
   -4.9908   -2.5653    0.8502 H   0  0  0  0  0  0  0  0  0  0  0  0
   -3.4313   -3.0273    1.5539 H   0  0  0  0  0  0  0  0  0  0  0  0
    0.6148   -1.3076   -2.1627 O   0  0  0  0  0  0  0  0  0  0  0  0
    0.6827   -1.1761   -3.1231 H   0  0  0  0  0  0  0  0  0  0  0  0
    0.1733    1.9360   -2.6200 Cl  0  0  0  0  0  0  0  0  0  0  0  0
  2 32  1  6  0  0  0
  2  8  1  0  0  0  0
  2  1  9  0  0  0  0
  3 11  1  0  0  0  0
  3  1  9  0  0  0  0
  4 28  1  0  0  0  0
  5 23  2  0  0  0  0
  5  1  9  0  0  0  0
  6 40  1  0  0  0  0
  7 35  2  0  0  0  0
  7  1  9  0  0  0  0
  8  9  1  0  0  0  0
  8 10  1  0  0  0  0
 11  8  1  0  0  0  0
 11 12  2  0  0  0  0
 12 13  1  0  0  0  0
 14 12  1  0  0  0  0
 14 15  1  0  0  0  0
 16 14  2  0  0  0  0
 17 16  1  0  0  0  0
 18  3  2  0  0  0  0
 18 16  1  0  0  0  0
 19 18  1  0  0  0  0
 20  2  1  0  0  0  0
 20 22  1  0  0  0  0
 21 20  1  0  0  0  0
 23 20  1  0  0  0  0
 23  4  1  0  0  0  0
 24 25  1  0  0  0  0
 24  4  1  0  0  0  0
 26  5  1  0  0  0  0
 26 24  2  0  0  0  0
 27 26  1  0  0  0  0
 28 30  1  0  0  0  0
 28 29  1  0  0  0  0
 31 28  1  0  0  0  0
 32 33  1  0  0  0  0
 34 32  1  0  0  0  0
 35  6  1  0  0  0  0
 35 32  1  0  0  0  0
 36  6  1  0  0  0  0
 37 36  1  0  0  0  0
 38  7  1  0  0  0  0
 38 36  2  0  0  0  0
 39 38  1  0  0  0  0
 40 42  1  0  0  0  0
 40 43  1  0  0  0  0
 41 40  1  0  0  0  0
 44  1  1  0  0  0  0
 45 44  1  0  0  0  0
 46  1  1  0  0  0  0
M  CHG  1   1   1
M  END
$$$$
