
 OpenBabel02052520083D

 46 51  0  0  0  0  0  0  0  0999 V2000
    0.2572    0.6266   -0.6956 Fe  0  3  0  0  0  0  0  0  0  0  0  0
    0.2004   -1.6916   -0.2742 N   0  0  2  0  0  0  0  0  0  0  0  0
   -0.4174    0.4196    1.5206 N   0  0  0  0  0  0  0  0  0  0  0  0
    3.8387   -1.3476    0.1352 N   0  0  0  0  0  0  0  0  0  0  0  0
    2.2052    0.1255    0.0172 N   0  0  0  0  0  0  0  0  0  0  0  0
   -3.3794   -1.4193   -1.1027 N   0  0  0  0  0  0  0  0  0  0  0  0
   -1.8201    0.1201   -0.8851 N   0  0  0  0  0  0  0  0  0  0  0  0
   -0.0014   -1.9645    1.1676 C   0  0  0  0  0  0  0  0  0  0  0  0
    0.9860   -2.1303    1.6124 H   0  0  0  0  0  0  0  0  0  0  0  0
   -0.5684   -2.8945    1.3082 H   0  0  0  0  0  0  0  0  0  0  0  0
   -0.6477   -0.8341    1.9459 C   0  0  0  0  0  0  0  0  0  0  0  0
   -1.3702   -1.0987    3.1089 C   0  0  0  0  0  0  0  0  0  0  0  0
   -1.5470   -2.1243    3.4191 H   0  0  0  0  0  0  0  0  0  0  0  0
   -1.8492   -0.0289    3.8660 C   0  0  0  0  0  0  0  0  0  0  0  0
   -2.4134   -0.2098    4.7760 H   0  0  0  0  0  0  0  0  0  0  0  0
   -1.5919    1.2706    3.4329 C   0  0  0  0  0  0  0  0  0  0  0  0
   -1.9417    2.1337    3.9890 H   0  0  0  0  0  0  0  0  0  0  0  0
   -0.8800    1.4486    2.2484 C   0  0  0  0  0  0  0  0  0  0  0  0
   -0.6738    2.4352    1.8480 H   0  0  0  0  0  0  0  0  0  0  0  0
    1.5410   -2.1253   -0.7363 C   0  0  0  0  0  0  0  0  0  0  0  0
    1.5492   -2.0529   -1.8275 H   0  0  0  0  0  0  0  0  0  0  0  0
    1.7672   -3.1609   -0.4464 H   0  0  0  0  0  0  0  0  0  0  0  0
    2.5357   -1.1461   -0.1822 C   0  0  0  0  0  0  0  0  0  0  0  0
    4.3550   -0.1259    0.5416 C   0  0  0  0  0  0  0  0  0  0  0  0
    5.3860   -0.0228    0.8436 H   0  0  0  0  0  0  0  0  0  0  0  0
    3.3285    0.7772    0.4662 C   0  0  0  0  0  0  0  0  0  0  0  0
    3.3133    1.8320    0.6943 H   0  0  0  0  0  0  0  0  0  0  0  0
    4.6019   -2.5851   -0.0100 C   0  0  0  0  0  0  0  0  0  0  0  0
    3.9788   -3.4416    0.2566 H   0  0  0  0  0  0  0  0  0  0  0  0
    5.4570   -2.5537    0.6671 H   0  0  0  0  0  0  0  0  0  0  0  0
    4.9590   -2.7006   -1.0375 H   0  0  0  0  0  0  0  0  0  0  0  0
   -0.9133   -2.1607   -1.1287 C   0  0  0  0  0  0  0  0  0  0  0  0
   -1.2251   -3.1829   -0.8726 H   0  0  0  0  0  0  0  0  0  0  0  0
   -0.5531   -2.1558   -2.1619 H   0  0  0  0  0  0  0  0  0  0  0  0
   -2.0455   -1.1804   -1.0219 C   0  0  0  0  0  0  0  0  0  0  0  0
   -4.0206   -0.1927   -1.0190 C   0  0  0  0  0  0  0  0  0  0  0  0
   -5.0960   -0.1147   -1.0670 H   0  0  0  0  0  0  0  0  0  0  0  0
   -3.0390    0.7522   -0.8773 C   0  0  0  0  0  0  0  0  0  0  0  0
   -3.1168    1.8235   -0.7709 H   0  0  0  0  0  0  0  0  0  0  0  0
   -4.0343   -2.7052   -1.3308 C   0  0  0  0  0  0  0  0  0  0  0  0
   -4.0080   -2.9710   -2.3917 H   0  0  0  0  0  0  0  0  0  0  0  0
   -5.0729   -2.6336   -1.0046 H   0  0  0  0  0  0  0  0  0  0  0  0
   -3.5404   -3.4857   -0.7476 H   0  0  0  0  0  0  0  0  0  0  0  0
    0.6298    0.1129   -2.4242 O   0  0  0  0  0  0  0  0  0  0  0  0
    0.7238    0.8331   -3.0696 H   0  0  0  0  0  0  0  0  0  0  0  0
    0.2773    3.0722   -0.7212 Br  0  0  0  0  0  0  0  0  0  0  0  0
  2 32  1  6  0  0  0
  2  8  1  0  0  0  0
  2  1  9  0  0  0  0
  3 11  2  0  0  0  0
  3 18  1  0  0  0  0
  3  1  9  0  0  0  0
  4 24  1  0  0  0  0
  5 26  1  0  0  0  0
  5  1  9  0  0  0  0
  6 35  1  0  0  0  0
  6 36  1  0  0  0  0
  7 38  1  0  0  0  0
  7  1  9  0  0  0  0
  8 10  1  0  0  0  0
  8  9  1  0  0  0  0
  8 11  1  0  0  0  0
 11 12  1  0  0  0  0
 12 13  1  0  0  0  0
 12 14  2  0  0  0  0
 14 15  1  0  0  0  0
 16 14  1  0  0  0  0
 16 17  1  0  0  0  0
 18 16  2  0  0  0  0
 19 18  1  0  0  0  0
 20 22  1  0  0  0  0
 20  2  1  0  0  0  0
 20 23  1  0  0  0  0
 21 20  1  0  0  0  0
 23  5  2  0  0  0  0
 23  4  1  0  0  0  0
 24 25  1  0  0  0  0
 26 24  2  0  0  0  0
 26 27  1  0  0  0  0
 28  4  1  0  0  0  0
 28 29  1  0  0  0  0
 28 30  1  0  0  0  0
 31 28  1  0  0  0  0
 32 35  1  0  0  0  0
 32 33  1  0  0  0  0
 34 32  1  0  0  0  0
 35  7  2  0  0  0  0
 36 38  2  0  0  0  0
 37 36  1  0  0  0  0
 38 39  1  0  0  0  0
 40  6  1  0  0  0  0
 40 42  1  0  0  0  0
 40 43  1  0  0  0  0
 41 40  1  0  0  0  0
 44  1  1  0  0  0  0
 45 44  1  0  0  0  0
 46  1  1  0  0  0  0
M  CHG  1   1   1
M  END
$$$$
