
 OpenBabel02072512503D

 48 52  0  0  0  0  0  0  0  0999 V2000
    0.1651    0.3351   -0.1492 Fe  0  3  0  0  0 37  0  0  0  0  0  0
   -0.1708    0.0386   -2.5117 N   0  0  2  0  0  0  0  0  0  0  0  0
   -1.5960    1.6924   -0.7179 N   0  0  0  0  0  0  0  0  0  0  0  0
   -1.9707   -3.0111   -1.5285 N   0  0  0  0  0  0  0  0  0  0  0  0
   -1.2487   -1.2798   -0.3701 N   0  0  0  0  0  0  0  0  0  0  0  0
    1.9506    3.0192   -2.8803 N   0  0  0  0  0  0  0  0  0  0  0  0
    1.1618    2.0321   -1.0742 N   0  0  0  0  0  0  0  0  0  0  0  0
   -1.4124    0.7115   -2.9520 C   0  0  0  0  0  0  0  0  0  0  0  0
   -2.2010   -0.0475   -3.0073 H   0  0  0  0  0  0  0  0  0  0  0  0
   -1.2970    1.1140   -3.9678 H   0  0  0  0  0  0  0  0  0  0  0  0
   -1.9138    1.7988   -2.0169 C   0  0  0  0  0  0  0  0  0  0  0  0
   -2.7432    2.8169   -2.4882 C   0  0  0  0  0  0  0  0  0  0  0  0
   -2.9766    2.8844   -3.5468 H   0  0  0  0  0  0  0  0  0  0  0  0
   -3.2690    3.7357   -1.5794 C   0  0  0  0  0  0  0  0  0  0  0  0
   -3.9177    4.5359   -1.9228 H   0  0  0  0  0  0  0  0  0  0  0  0
   -2.9457    3.6117   -0.2283 C   0  0  0  0  0  0  0  0  0  0  0  0
   -3.3317    4.3040    0.5123 H   0  0  0  0  0  0  0  0  0  0  0  0
   -2.0959    2.5778    0.1575 C   0  0  0  0  0  0  0  0  0  0  0  0
   -1.7803    2.4390    1.1865 H   0  0  0  0  0  0  0  0  0  0  0  0
   -0.2578   -1.4342   -2.6254 C   0  0  0  0  0  0  0  0  0  0  0  0
    0.7432   -1.8346   -2.4415 H   0  0  0  0  0  0  0  0  0  0  0  0
   -0.5930   -1.7609   -3.6204 H   0  0  0  0  0  0  0  0  0  0  0  0
   -1.1709   -1.9144   -1.5341 C   0  0  0  0  0  0  0  0  0  0  0  0
   -2.5724   -3.0724   -0.2808 C   0  0  0  0  0  0  0  0  0  0  0  0
   -3.2579   -3.8656   -0.0239 H   0  0  0  0  0  0  0  0  0  0  0  0
   -2.1174   -1.9898    0.4235 C   0  0  0  0  0  0  0  0  0  0  0  0
   -2.3515   -1.6731    1.4284 H   0  0  0  0  0  0  0  0  0  0  0  0
   -2.1125   -4.0058   -2.5890 C   0  0  0  0  0  0  0  0  0  0  0  0
   -2.1304   -3.5137   -3.5640 H   0  0  0  0  0  0  0  0  0  0  0  0
   -3.0558   -4.5363   -2.4508 H   0  0  0  0  0  0  0  0  0  0  0  0
   -1.2876   -4.7238   -2.5591 H   0  0  0  0  0  0  0  0  0  0  0  0
    1.0582    0.6156   -3.0938 C   0  0  0  0  0  0  0  0  0  0  0  0
    0.9718    0.7650   -4.1798 H   0  0  0  0  0  0  0  0  0  0  0  0
    1.8691   -0.0940   -2.9043 H   0  0  0  0  0  0  0  0  0  0  0  0
    1.3798    1.8942   -2.3756 C   0  0  0  0  0  0  0  0  0  0  0  0
    2.1035    3.9078   -1.8278 C   0  0  0  0  0  0  0  0  0  0  0  0
    2.5453    4.8820   -1.9717 H   0  0  0  0  0  0  0  0  0  0  0  0
    1.6024    3.2827   -0.7165 C   0  0  0  0  0  0  0  0  0  0  0  0
    1.5228    3.6405    0.2988 H   0  0  0  0  0  0  0  0  0  0  0  0
    2.4074    3.2397   -4.2502 C   0  0  0  0  0  0  0  0  0  0  0  0
    3.3705    2.7503   -4.4222 H   0  0  0  0  0  0  0  0  0  0  0  0
    2.5165    4.3125   -4.4159 H   0  0  0  0  0  0  0  0  0  0  0  0
    1.6712    2.8524   -4.9583 H   0  0  0  0  0  0  0  0  0  0  0  0
    1.6157   -0.7743   -0.4243 O   0  0  0  0  0  1  0  0  0  0  0  0
    2.2755   -0.8809    0.2790 H   0  0  0  0  0  0  0  0  0  0  0  0
    0.0498    0.8299    1.6921 N   0  0  0  0  0  0  0  0  0  0  0  0
    0.6619    0.5816    2.7133 N   0  3  0  0  0  0  0  0  0  0  0  0
    1.2133    0.3727    3.6998 N   0  5  0  0  0  0  0  0  0  0  0  0
  1 46  1  0  0  0  0
  2 32  1  6  0  0  0
  2  1  9  0  0  0  0
  3 18  1  0  0  0  0
  3  1  9  0  0  0  0
  4 24  1  0  0  0  0
  5 26  1  0  0  0  0
  5  1  9  0  0  0  0
  6 35  1  0  0  0  0
  6 36  1  0  0  0  0
  7 38  1  0  0  0  0
  7  1  9  0  0  0  0
  8  2  1  0  0  0  0
  8 11  1  0  0  0  0
  9  8  1  0  0  0  0
 10  8  1  0  0  0  0
 11  3  2  0  0  0  0
 12 11  1  0  0  0  0
 12 14  2  0  0  0  0
 13 12  1  0  0  0  0
 14 16  1  0  0  0  0
 15 14  1  0  0  0  0
 16 18  2  0  0  0  0
 16 17  1  0  0  0  0
 18 19  1  0  0  0  0
 20  2  1  0  0  0  0
 20 21  1  0  0  0  0
 20 23  1  0  0  0  0
 22 20  1  0  0  0  0
 23  4  1  0  0  0  0
 23  5  2  0  0  0  0
 24 25  1  0  0  0  0
 24 26  2  0  0  0  0
 26 27  1  0  0  0  0
 28 31  1  0  0  0  0
 28 30  1  0  0  0  0
 28  4  1  0  0  0  0
 29 28  1  0  0  0  0
 32 34  1  0  0  0  0
 32 35  1  0  0  0  0
 33 32  1  0  0  0  0
 35  7  2  0  0  0  0
 36 38  2  0  0  0  0
 37 36  1  0  0  0  0
 38 39  1  0  0  0  0
 40  6  1  0  0  0  0
 41 40  1  0  0  0  0
 42 40  1  0  0  0  0
 43 40  1  0  0  0  0
 44 45  1  0  0  0  0
 46 47  2  0  0  0  0
 47 48  2  0  0  0  0
M  RAD  2   1   2  44   2
M  CHG  3   1   1  47   1  48  -1
M  END
$$$$
