
 OpenBabel02072512503D

 52 54  0  0  0  0  0  0  0  0999 V2000
    0.2274   -0.0170   -0.5184 Fe  0  3  0  0  0 37  0  0  0  0  0  0
    1.3954   -1.5837   -2.1126 S   0  0  0  0  0  1  0  0  0  0  0  0
   -0.9742   -3.2290    4.2579 C   0  0  0  0  0  0  0  0  0  0  0  0
   -0.4740   -2.7529    2.9344 C   0  0  0  0  0  0  0  0  0  0  0  0
   -0.5514   -1.5391    2.2995 C   0  0  0  0  0  0  0  0  0  0  0  0
    0.2281   -3.5633    2.0532 N   0  0  0  0  0  0  0  0  0  0  0  0
    0.5408   -2.8338    0.9500 C   0  0  0  0  0  0  0  0  0  0  0  0
    0.0819   -1.6006    1.0712 N   0  0  0  0  0  0  0  0  0  0  0  0
   -1.6787   -4.0643    4.1541 H   0  0  0  0  0  0  0  0  0  0  0  0
   -1.4953   -2.4155    4.7702 H   0  0  0  0  0  0  0  0  0  0  0  0
   -0.1561   -3.5628    4.9090 H   0  0  0  0  0  0  0  0  0  0  0  0
   -1.0099   -0.6224    2.6365 H   0  0  0  0  0  0  0  0  0  0  0  0
    0.4716   -4.5320    2.2041 H   0  0  0  0  0  0  0  0  0  0  0  0
    1.0825   -3.2036    0.0911 H   0  0  0  0  0  0  0  0  0  0  0  0
   -0.3787    4.3724    3.3312 C   0  0  0  0  0  0  0  0  0  0  0  0
   -0.6655    3.2515    2.3886 C   0  0  0  0  0  0  0  0  0  0  0  0
    0.0367    2.1223    2.0536 C   0  0  0  0  0  0  0  0  0  0  0  0
   -1.8187    3.1821    1.6212 N   0  0  0  0  0  0  0  0  0  0  0  0
   -1.7629    2.0560    0.8625 C   0  0  0  0  0  0  0  0  0  0  0  0
   -0.6492    1.3864    1.1027 N   0  0  0  0  0  0  0  0  0  0  0  0
   -1.1401    4.4539    4.1177 H   0  0  0  0  0  0  0  0  0  0  0  0
   -0.3307    5.3375    2.8111 H   0  0  0  0  0  0  0  0  0  0  0  0
    0.5876    4.2099    3.8165 H   0  0  0  0  0  0  0  0  0  0  0  0
    0.9940    1.7986    2.4359 H   0  0  0  0  0  0  0  0  0  0  0  0
   -2.5254    3.8998    1.5473 H   0  0  0  0  0  0  0  0  0  0  0  0
   -2.5093    1.7861    0.1331 H   0  0  0  0  0  0  0  0  0  0  0  0
   -5.4054   -1.4416   -1.3476 C   0  0  0  0  0  0  0  0  0  0  0  0
   -3.9807   -1.0189   -1.4881 C   0  0  0  0  0  0  0  0  0  0  0  0
   -2.9385   -0.9656   -0.5967 C   0  0  0  0  0  0  0  0  0  0  0  0
   -3.4390   -0.5705   -2.6851 N   0  0  0  0  0  0  0  0  0  0  0  0
   -2.1309   -0.2691   -2.4806 C   0  0  0  0  0  0  0  0  0  0  0  0
   -1.7996   -0.4995   -1.2245 N   0  0  0  0  0  0  0  0  0  0  0  0
    2.3497    0.4017    0.1412 N   0  0  0  0  0  0  0  0  0  0  0  0
    3.2784   -0.4627   -0.5393 C   0  0  2  0  0  0  0  0  0  0  0  0
    4.8653    0.2425   -0.4855 C   0  0  0  0  0  0  0  0  0  0  0  0
    4.7952    1.4534   -0.6754 O   0  0  0  0  0  0  0  0  0  0  0  0
    2.9348   -0.5940   -2.0182 C   0  0  0  0  0  0  0  0  0  0  0  0
    5.6983   -0.6336   -0.2780 O   0  5  0  0  0  0  0  0  0  0  0  0
   -5.6000   -1.7486   -0.3162 H   0  0  0  0  0  0  0  0  0  0  0  0
   -5.6468   -2.2912   -1.9994 H   0  0  0  0  0  0  0  0  0  0  0  0
   -6.1007   -0.6277   -1.5907 H   0  0  0  0  0  0  0  0  0  0  0  0
   -2.9233   -1.2392    0.4484 H   0  0  0  0  0  0  0  0  0  0  0  0
   -3.9364   -0.4618   -3.5574 H   0  0  0  0  0  0  0  0  0  0  0  0
   -1.4564    0.1076   -3.2346 H   0  0  0  0  0  0  0  0  0  0  0  0
    2.4691    0.3616    1.1505 H   0  0  0  0  0  0  0  0  0  0  0  0
    2.5058    1.3654   -0.1666 H   0  0  0  0  0  0  0  0  0  0  0  0
    3.3575   -1.4251   -0.0347 H   0  0  0  0  0  0  0  0  0  0  0  0
    3.7435   -1.0944   -2.5565 H   0  0  0  0  0  0  0  0  0  0  0  0
    2.7815    0.4051   -2.4375 H   0  0  0  0  0  0  0  0  0  0  0  0
    0.3245    1.6539   -1.7364 N   0  0  0  0  0  0  0  0  0  0  0  0
   -0.6115    2.3932   -1.8925 N   0  3  0  0  0  0  0  0  0  0  0  0
   -1.5282    3.0960   -2.0444 N   0  5  0  0  0  0  0  0  0  0  0  0
  1 50  1  0  0  0  0
  2 37  1  0  0  0  0
  3 10  1  0  0  0  0
  3 11  1  0  0  0  0
  4  3  1  0  0  0  0
  5 12  1  0  0  0  0
  5  4  2  0  0  0  0
  6 13  1  0  0  0  0
  6  4  1  0  0  0  0
  7  8  2  0  0  0  0
  7  6  1  0  0  0  0
  8  5  1  0  0  0  0
  8  1  9  0  0  0  0
  9  3  1  0  0  0  0
 14  7  1  0  0  0  0
 15 23  1  0  0  0  0
 15 21  1  0  0  0  0
 16 15  1  0  0  0  0
 17 16  2  0  0  0  0
 17 24  1  0  0  0  0
 18 16  1  0  0  0  0
 19 20  2  0  0  0  0
 19 18  1  0  0  0  0
 20 17  1  0  0  0  0
 20  1  9  0  0  0  0
 22 15  1  0  0  0  0
 25 18  1  0  0  0  0
 26 19  1  0  0  0  0
 27 39  1  0  0  0  0
 28 27  1  0  0  0  0
 28 29  2  0  0  0  0
 29 42  1  0  0  0  0
 30 31  1  0  0  0  0
 30 28  1  0  0  0  0
 31 32  2  0  0  0  0
 32 29  1  0  0  0  0
 32  1  9  0  0  0  0
 33 45  1  0  0  0  0
 33  1  9  0  0  0  0
 34 35  1  0  0  0  0
 34 47  1  1  0  0  0
 34 33  1  0  0  0  0
 35 38  1  0  0  0  0
 36 35  2  0  0  0  0
 37 34  1  0  0  0  0
 40 27  1  0  0  0  0
 41 27  1  0  0  0  0
 43 30  1  0  0  0  0
 44 31  1  0  0  0  0
 46 33  1  0  0  0  0
 48 37  1  0  0  0  0
 49 37  1  0  0  0  0
 51 50  2  0  0  0  0
 52 51  2  0  0  0  0
M  RAD  2   1   2   2   2
M  CHG  4   1   1  38  -1  51   1  52  -1
M  END
$$$$
