
 OpenBabel02052520083D

 75 82  0  0  0  0  0  0  0  0999 V2000
   -1.3132    0.0822   -0.2822 Fe  0  0  0  0  0  0  0  0  0  0  0  0
   -0.4361   -1.2161   -2.1743 S   0  0  0  0  0  0  0  0  0  0  0  0
    0.1543    1.5784   -1.0811 N   0  0  0  0  0  0  0  0  0  0  0  0
    1.3434    0.8062   -1.4634 C   0  0  2  0  0  0  0  0  0  0  0  0
    2.5609    1.6944   -1.7106 C   0  0  0  0  0  0  0  0  0  0  0  0
    2.5864    2.8952   -1.5342 O   0  0  0  0  0  0  0  0  0  0  0  0
    0.9826   -0.1235   -2.6303 C   0  0  0  0  0  0  0  0  0  0  0  0
    3.6233    0.9546   -2.0692 O   0  0  0  0  0  0  0  0  0  0  0  0
    0.4035    2.3327   -0.4431 H   0  0  0  0  0  0  0  0  0  0  0  0
   -0.2484    2.0308   -1.9029 H   0  0  0  0  0  0  0  0  0  0  0  0
    1.6187    0.1804   -0.6042 H   0  0  0  0  0  0  0  0  0  0  0  0
    1.8559   -0.7219   -2.8942 H   0  0  0  0  0  0  0  0  0  0  0  0
    0.7180    0.4799   -3.5082 H   0  0  0  0  0  0  0  0  0  0  0  0
    0.3554   -0.2840    2.4705 C   0  0  0  0  0  0  0  0  0  0  0  0
    0.5656   -2.0924    2.3021 P   0  0  1  0  0  0  0  0  0  0  0  0
    1.0640    0.3782    3.4275 N   0  0  0  0  0  0  0  0  0  0  0  0
    1.2820    2.4640    3.9292 H   0  0  0  0  0  0  0  0  0  0  0  0
    0.8482    1.7245    3.2746 C   0  0  0  0  0  0  0  0  0  0  0  0
   -0.3141    0.5862    1.7162 N   0  0  0  0  0  0  0  0  0  0  0  0
   -0.0229    1.8522    2.2153 C   0  0  0  0  0  0  0  0  0  0  0  0
    1.6891   -0.0601    4.0903 H   0  0  0  0  0  0  0  0  0  0  0  0
   -1.6175   -3.7198    1.9371 N   0  0  0  0  0  0  0  0  0  0  0  0
   -1.0223   -2.5543    1.5348 C   0  0  0  0  0  0  0  0  0  0  0  0
   -1.8351   -1.9053    0.6986 N   0  0  0  0  0  0  0  0  0  0  0  0
   -2.8396   -3.8140    1.3303 C   0  0  0  0  0  0  0  0  0  0  0  0
    1.6995   -2.5466   -0.3192 N   0  0  0  0  0  0  0  0  0  0  0  0
   -2.9792   -2.6749    0.5599 C   0  0  0  0  0  0  0  0  0  0  0  0
    3.0350   -1.6669    1.2381 N   0  0  0  0  0  0  0  0  0  0  0  0
    1.8111   -2.0937    0.9659 C   0  0  0  0  0  0  0  0  0  0  0  0
    2.9259   -2.3480   -0.9073 C   0  0  0  0  0  0  0  0  0  0  0  0
    3.7495   -1.8035    0.0615 C   0  0  0  0  0  0  0  0  0  0  0  0
    3.0883   -2.5695   -1.9504 H   0  0  0  0  0  0  0  0  0  0  0  0
    0.8209   -2.5323   -0.8709 H   0  0  0  0  0  0  0  0  0  0  0  0
   -3.4943   -4.6607    1.4648 H   0  0  0  0  0  0  0  0  0  0  0  0
   -1.2134   -4.3868    2.5804 H   0  0  0  0  0  0  0  0  0  0  0  0
   -0.5717    3.0980    1.6578 C   0  0  0  0  0  0  0  0  0  0  0  0
    0.2805    4.1823    1.3858 C   0  0  0  0  0  0  0  0  0  0  0  0
    1.3462    4.0889    1.5781 H   0  0  0  0  0  0  0  0  0  0  0  0
   -0.2319    5.3526    0.8250 C   0  0  0  0  0  0  0  0  0  0  0  0
    0.4362    6.1804    0.6045 H   0  0  0  0  0  0  0  0  0  0  0  0
   -1.5940    5.4478    0.5266 C   0  0  0  0  0  0  0  0  0  0  0  0
   -1.9889    6.3537    0.0751 H   0  0  0  0  0  0  0  0  0  0  0  0
   -2.4470    4.3749    0.7989 C   0  0  0  0  0  0  0  0  0  0  0  0
   -3.5032    4.4291    0.5528 H   0  0  0  0  0  0  0  0  0  0  0  0
   -1.9392    3.2085    1.3700 C   0  0  0  0  0  0  0  0  0  0  0  0
   -2.5957    2.3716    1.5738 H   0  0  0  0  0  0  0  0  0  0  0  0
   -4.1582   -2.3091   -0.2417 C   0  0  0  0  0  0  0  0  0  0  0  0
   -3.0557   -1.5880   -1.9516 H   0  0  0  0  0  0  0  0  0  0  0  0
   -4.0374   -1.7637   -1.5275 C   0  0  0  0  0  0  0  0  0  0  0  0
   -5.0693   -0.9888   -3.2423 H   0  0  0  0  0  0  0  0  0  0  0  0
   -5.1776   -1.4313   -2.2566 C   0  0  0  0  0  0  0  0  0  0  0  0
   -7.3330   -1.3761   -2.2880 H   0  0  0  0  0  0  0  0  0  0  0  0
   -6.4481   -1.6499   -1.7205 C   0  0  0  0  0  0  0  0  0  0  0  0
   -7.5623   -2.3693   -0.0175 H   0  0  0  0  0  0  0  0  0  0  0  0
   -6.5772   -2.2063   -0.4462 C   0  0  0  0  0  0  0  0  0  0  0  0
   -5.5389   -2.9323    1.2959 H   0  0  0  0  0  0  0  0  0  0  0  0
   -5.4392   -2.5312    0.2902 C   0  0  0  0  0  0  0  0  0  0  0  0
    5.1331   -1.3370   -0.0767 C   0  0  0  0  0  0  0  0  0  0  0  0
    5.0592   -0.1430    1.7064 H   0  0  0  0  0  0  0  0  0  0  0  0
    5.6732   -0.4445    0.8639 C   0  0  0  0  0  0  0  0  0  0  0  0
    6.9676    0.0507    0.7121 C   0  0  0  0  0  0  0  0  0  0  0  0
    7.3674    0.7441    1.4476 H   0  0  0  0  0  0  0  0  0  0  0  0
    8.7585    0.0482   -0.4961 H   0  0  0  0  0  0  0  0  0  0  0  0
    7.7495   -0.3377   -0.3791 C   0  0  0  0  0  0  0  0  0  0  0  0
    7.2253   -1.2342   -1.3149 C   0  0  0  0  0  0  0  0  0  0  0  0
    7.8284   -1.5537   -2.1609 H   0  0  0  0  0  0  0  0  0  0  0  0
    5.5390   -2.4365   -1.8916 H   0  0  0  0  0  0  0  0  0  0  0  0
    5.9311   -1.7304   -1.1645 C   0  0  0  0  0  0  0  0  0  0  0  0
    4.8777    1.6563   -2.1661 C   0  0  0  0  0  0  0  0  0  0  0  0
    4.8344    2.4054   -2.9615 H   0  0  0  0  0  0  0  0  0  0  0  0
    5.1072    2.1471   -1.2172 H   0  0  0  0  0  0  0  0  0  0  0  0
    5.6211    0.8901   -2.3807 H   0  0  0  0  0  0  0  0  0  0  0  0
   -3.0398    0.9817   -0.5178 N   0  0  0  0  0  0  0  0  0  0  0  0
   -4.0378    1.5933   -0.7327 C   0  0  0  0  0  0  0  0  0  0  0  0
   -5.3866    2.4410   -1.0013 S   0  0  0  0  0  0  0  0  0  0  0  0
  2  1  1  0  0  0  0
  3  9  1  0  0  0  0
  3  1  9  0  0  0  0
  4  3  1  0  0  0  0
  4 11  1  1  0  0  0
  5  6  2  0  0  0  0
  5  4  1  0  0  0  0
  7  2  1  0  0  0  0
  7  4  1  0  0  0  0
  8  5  1  0  0  0  0
 10  3  1  0  0  0  0
 12  7  1  0  0  0  0
 13  7  1  0  0  0  0
 14 16  1  0  0  0  0
 15 29  1  6  0  0  0
 15 14  1  0  0  0  0
 16 21  1  0  0  0  0
 18 16  1  0  0  0  0
 18 17  1  0  0  0  0
 19 20  1  0  0  0  0
 19 14  2  0  0  0  0
 19  1  9  0  0  0  0
 20 18  2  0  0  0  0
 22 35  1  0  0  0  0
 23 22  1  0  0  0  0
 23 15  1  0  0  0  0
 24 23  2  0  0  0  0
 24  1  9  0  0  0  0
 25 34  1  0  0  0  0
 25 22  1  0  0  0  0
 26 29  1  0  0  0  0
 27 24  1  0  0  0  0
 27 25  2  0  0  0  0
 29 28  2  0  0  0  0
 30 26  1  0  0  0  0
 30 31  2  0  0  0  0
 31 28  1  0  0  0  0
 32 30  1  0  0  0  0
 33 26  1  0  0  0  0
 36 20  1  0  0  0  0
 37 38  1  0  0  0  0
 37 36  1  0  0  0  0
 39 37  2  0  0  0  0
 40 39  1  0  0  0  0
 41 43  2  0  0  0  0
 41 39  1  0  0  0  0
 42 41  1  0  0  0  0
 43 45  1  0  0  0  0
 44 43  1  0  0  0  0
 45 46  1  0  0  0  0
 45 36  2  0  0  0  0
 47 57  2  0  0  0  0
 47 27  1  0  0  0  0
 48 49  1  0  0  0  0
 49 47  1  0  0  0  0
 50 51  1  0  0  0  0
 51 53  1  0  0  0  0
 51 49  2  0  0  0  0
 52 53  1  0  0  0  0
 53 55  2  0  0  0  0
 55 54  1  0  0  0  0
 55 57  1  0  0  0  0
 57 56  1  0  0  0  0
 58 31  1  0  0  0  0
 58 60  2  0  0  0  0
 60 59  1  0  0  0  0
 61 60  1  0  0  0  0
 61 62  1  0  0  0  0
 63 64  1  0  0  0  0
 64 61  2  0  0  0  0
 65 68  2  0  0  0  0
 65 64  1  0  0  0  0
 66 65  1  0  0  0  0
 67 68  1  0  0  0  0
 68 58  1  0  0  0  0
 69  8  1  0  0  0  0
 69 71  1  0  0  0  0
 70 69  1  0  0  0  0
 72 69  1  0  0  0  0
 73  1  1  0  0  0  0
 74 73  2  0  0  0  0
 75 74  2  0  0  0  0
M  END
$$$$
