
 OpenBabel02052520083D

 50 53  0  0  0  0  0  0  0  0999 V2000
    0.0949   -0.4881   -0.3883 Fe  0  3  0  0  0  0  0  0  0  0  0  0
    0.4208   -2.5607    0.9768 S   0  0  0  0  0  0  0  0  0  0  0  0
   -2.7618    3.0226    3.4446 C   0  0  0  0  0  0  0  0  0  0  0  0
   -1.9035    1.9672    2.8296 C   0  0  0  0  0  0  0  0  0  0  0  0
   -1.4892    1.7474    1.5398 C   0  0  0  0  0  0  0  0  0  0  0  0
   -1.3300    0.9350    3.5584 N   0  0  0  0  0  0  0  0  0  0  0  0
   -0.6146    0.1513    2.7072 C   0  0  0  0  0  0  0  0  0  0  0  0
   -0.6887    0.6203    1.4751 N   0  0  0  0  0  0  0  0  0  0  0  0
   -3.6487    2.5974    3.9321 H   0  0  0  0  0  0  0  0  0  0  0  0
   -3.1070    3.7151    2.6719 H   0  0  0  0  0  0  0  0  0  0  0  0
   -2.2173    3.6070    4.1975 H   0  0  0  0  0  0  0  0  0  0  0  0
   -1.7119    2.3211    0.6527 H   0  0  0  0  0  0  0  0  0  0  0  0
   -1.4322    0.7816    4.5516 H   0  0  0  0  0  0  0  0  0  0  0  0
   -0.0932   -0.7530    2.9865 H   0  0  0  0  0  0  0  0  0  0  0  0
    1.5102    5.1556   -1.4062 C   0  0  0  0  0  0  0  0  0  0  0  0
    1.0160    3.7526   -1.5294 C   0  0  0  0  0  0  0  0  0  0  0  0
    0.7473    2.7815   -0.5986 C   0  0  0  0  0  0  0  0  0  0  0  0
    0.7252    3.1539   -2.7470 N   0  0  0  0  0  0  0  0  0  0  0  0
    0.3131    1.8797   -2.5151 C   0  0  0  0  0  0  0  0  0  0  0  0
    0.3100    1.6247   -1.2200 N   0  0  0  0  0  0  0  0  0  0  0  0
    0.7913    5.8811   -1.8087 H   0  0  0  0  0  0  0  0  0  0  0  0
    2.4615    5.3017   -1.9336 H   0  0  0  0  0  0  0  0  0  0  0  0
    1.6747    5.3988   -0.3528 H   0  0  0  0  0  0  0  0  0  0  0  0
    0.8310    2.8406    0.4765 H   0  0  0  0  0  0  0  0  0  0  0  0
    0.8416    3.5758   -3.6574 H   0  0  0  0  0  0  0  0  0  0  0  0
    0.0854    1.1551   -3.2824 H   0  0  0  0  0  0  0  0  0  0  0  0
   -5.6486   -1.6109   -0.4533 C   0  0  0  0  0  0  0  0  0  0  0  0
   -4.1908   -1.5072   -0.7564 C   0  0  0  0  0  0  0  0  0  0  0  0
   -3.1976   -0.7048   -0.2571 C   0  0  0  0  0  0  0  0  0  0  0  0
   -3.5533   -2.3051   -1.6974 N   0  0  0  0  0  0  0  0  0  0  0  0
   -2.2382   -1.9703   -1.7289 C   0  0  0  0  0  0  0  0  0  0  0  0
   -1.9930   -0.9981   -0.8685 N   0  0  0  0  0  0  0  0  0  0  0  0
    2.2988   -0.1839    0.1677 N   0  0  0  0  0  0  0  0  0  0  0  0
    2.7315   -1.1884    1.0863 C   0  0  2  0  0  0  0  0  0  0  0  0
    4.5109   -1.2974    1.0569 C   0  0  0  0  0  0  0  0  0  0  0  0
    4.9053   -1.2045   -0.0961 O   0  0  0  0  0  0  0  0  0  0  0  0
    2.2346   -2.5657    0.6819 C   0  0  0  0  0  0  0  0  0  0  0  0
    4.9093   -1.4479    2.2031 O   0  5  0  0  0  0  0  0  0  0  0  0
   -5.9174   -0.8857    0.3200 H   0  0  0  0  0  0  0  0  0  0  0  0
   -5.9204   -2.6079   -0.0829 H   0  0  0  0  0  0  0  0  0  0  0  0
   -6.2689   -1.4031   -1.3351 H   0  0  0  0  0  0  0  0  0  0  0  0
   -3.2672    0.0552    0.5063 H   0  0  0  0  0  0  0  0  0  0  0  0
   -3.9862   -3.0295   -2.2520 H   0  0  0  0  0  0  0  0  0  0  0  0
   -1.4891   -2.4290   -2.3579 H   0  0  0  0  0  0  0  0  0  0  0  0
    2.4955    0.7622    0.4835 H   0  0  0  0  0  0  0  0  0  0  0  0
    2.7395   -0.3283   -0.7446 H   0  0  0  0  0  0  0  0  0  0  0  0
    2.4888   -0.9225    2.1144 H   0  0  0  0  0  0  0  0  0  0  0  0
    2.7104   -3.3421    1.2859 H   0  0  0  0  0  0  0  0  0  0  0  0
    2.4544   -2.7344   -0.3763 H   0  0  0  0  0  0  0  0  0  0  0  0
    0.8983   -1.3108   -2.5688 Cl  0  0  0  0  0  0  0  0  0  0  0  0
  1  2  1  0  0  0  0
  3  9  1  0  0  0  0
  3 11  1  0  0  0  0
  4  3  1  0  0  0  0
  4  6  1  0  0  0  0
  5  4  2  0  0  0  0
  6 13  1  0  0  0  0
  7 14  1  0  0  0  0
  7  6  1  0  0  0  0
  8  5  1  0  0  0  0
  8  7  2  0  0  0  0
  8  1  9  0  0  0  0
 10  3  1  0  0  0  0
 12  5  1  0  0  0  0
 15 23  1  0  0  0  0
 16 15  1  0  0  0  0
 16 17  2  0  0  0  0
 17 24  1  0  0  0  0
 18 19  1  0  0  0  0
 18 16  1  0  0  0  0
 19 20  2  0  0  0  0
 20 17  1  0  0  0  0
 20  1  9  0  0  0  0
 21 15  1  0  0  0  0
 22 15  1  0  0  0  0
 25 18  1  0  0  0  0
 26 19  1  0  0  0  0
 27 40  1  0  0  0  0
 27 39  1  0  0  0  0
 28 27  1  0  0  0  0
 28 29  2  0  0  0  0
 29 42  1  0  0  0  0
 30 28  1  0  0  0  0
 31 30  1  0  0  0  0
 31 32  2  0  0  0  0
 32 29  1  0  0  0  0
 32  1  9  0  0  0  0
 33 45  1  0  0  0  0
 33 34  1  0  0  0  0
 33  1  9  0  0  0  0
 34 47  1  1  0  0  0
 35 34  1  0  0  0  0
 35 38  1  0  0  0  0
 36 35  2  0  0  0  0
 37  2  1  0  0  0  0
 37 34  1  0  0  0  0
 37 48  1  0  0  0  0
 41 27  1  0  0  0  0
 43 30  1  0  0  0  0
 44 31  1  0  0  0  0
 46 33  1  0  0  0  0
 49 37  1  0  0  0  0
 50  1  1  0  0  0  0
M  CHG  2   1   1  38  -1
M  END
$$$$
