
 OpenBabel02052520083D

 75 84  0  0  0  0  0  0  0  0999 V2000
    0.5297   -0.2388   -0.2405 Fe  0  0  0  0  0  0  0  0  0  0  0  0
    1.3942    1.3799    1.3707 S   0  0  0  0  0  0  0  0  0  0  0  0
    0.7750   -3.8834    0.0249 P   0  0  1  0  0  0  0  0  0  0  0  0
   -1.3669    0.7258    0.0451 O   0  0  0  0  0  0  0  0  0  0  0  0
   -2.8486    2.3855    0.0871 O   0  0  0  0  0  0  0  0  0  0  0  0
   -0.8354   -3.9307    2.2942 N   0  0  0  0  0  0  0  0  0  0  0  0
   -0.5207   -1.8653    1.5507 N   0  0  0  0  0  0  0  0  0  0  0  0
   -0.7937   -3.9389   -2.2962 N   0  0  0  0  0  0  0  0  0  0  0  0
   -0.6004   -1.9013   -1.4618 N   0  0  0  0  0  0  0  0  0  0  0  0
    3.5182   -3.4515    0.1225 N   0  0  0  0  0  0  0  0  0  0  0  0
    2.4026   -1.5547   -0.0867 N   0  0  0  0  0  0  0  0  0  0  0  0
   -0.1688   -3.1357    1.3980 C   0  0  0  0  0  0  0  0  0  0  0  0
   -1.6499   -3.1235    3.0437 C   0  0  0  0  0  0  0  0  0  0  0  0
   -1.4615   -1.8369    2.5668 C   0  0  0  0  0  0  0  0  0  0  0  0
   -0.1961   -3.1583   -1.3425 C   0  0  0  0  0  0  0  0  0  0  0  0
   -1.4903   -1.8589   -2.5196 C   0  0  0  0  0  0  0  0  0  0  0  0
   -1.6083   -3.1317   -3.0495 C   0  0  0  0  0  0  0  0  0  0  0  0
    2.2838   -2.8733    0.0077 C   0  0  0  0  0  0  0  0  0  0  0  0
    4.4552   -2.4517    0.0910 C   0  0  0  0  0  0  0  0  0  0  0  0
    3.7578   -1.2633   -0.0399 C   0  0  0  0  0  0  0  0  0  0  0  0
   -2.2010   -0.6428    3.0070 C   0  0  0  0  0  0  0  0  0  0  0  0
   -3.5479   -0.7694    3.3905 C   0  0  0  0  0  0  0  0  0  0  0  0
   -4.0347   -1.7401    3.3341 H   0  0  0  0  0  0  0  0  0  0  0  0
   -4.2761    0.3467    3.8027 C   0  0  0  0  0  0  0  0  0  0  0  0
   -5.3194    0.2349    4.0869 H   0  0  0  0  0  0  0  0  0  0  0  0
   -3.6709    1.6060    3.8274 C   0  0  0  0  0  0  0  0  0  0  0  0
   -4.2412    2.4794    4.1327 H   0  0  0  0  0  0  0  0  0  0  0  0
   -2.3326    1.7363    3.4481 C   0  0  0  0  0  0  0  0  0  0  0  0
   -1.8529    2.7111    3.4513 H   0  0  0  0  0  0  0  0  0  0  0  0
   -1.5980    0.6208    3.0482 C   0  0  0  0  0  0  0  0  0  0  0  0
   -0.5653    0.7339    2.7338 H   0  0  0  0  0  0  0  0  0  0  0  0
   -2.2417   -0.6624   -2.9408 C   0  0  0  0  0  0  0  0  0  0  0  0
   -3.5970   -0.7961   -3.2885 C   0  0  0  0  0  0  0  0  0  0  0  0
   -4.0743   -1.7710   -3.2221 H   0  0  0  0  0  0  0  0  0  0  0  0
   -4.3422    0.3166   -3.6803 C   0  0  0  0  0  0  0  0  0  0  0  0
   -5.3918    0.2002   -3.9379 H   0  0  0  0  0  0  0  0  0  0  0  0
   -3.7432    1.5783   -3.7189 C   0  0  0  0  0  0  0  0  0  0  0  0
   -4.3254    2.4493   -4.0087 H   0  0  0  0  0  0  0  0  0  0  0  0
   -2.3948    1.7142   -3.3776 C   0  0  0  0  0  0  0  0  0  0  0  0
   -1.9215    2.6922   -3.4000 H   0  0  0  0  0  0  0  0  0  0  0  0
   -1.6390    0.6040   -2.9998 C   0  0  0  0  0  0  0  0  0  0  0  0
   -0.5887    0.7032   -2.7376 H   0  0  0  0  0  0  0  0  0  0  0  0
    4.3567    0.0784   -0.1285 C   0  0  0  0  0  0  0  0  0  0  0  0
    5.5214    0.3547    0.6060 C   0  0  0  0  0  0  0  0  0  0  0  0
    5.9325   -0.4023    1.2698 H   0  0  0  0  0  0  0  0  0  0  0  0
    6.1299    1.6063    0.5247 C   0  0  0  0  0  0  0  0  0  0  0  0
    7.0239    1.8112    1.1080 H   0  0  0  0  0  0  0  0  0  0  0  0
    5.5786    2.5968   -0.2918 C   0  0  0  0  0  0  0  0  0  0  0  0
    6.0466    3.5765   -0.3505 H   0  0  0  0  0  0  0  0  0  0  0  0
    4.4199    2.3254   -1.0230 C   0  0  0  0  0  0  0  0  0  0  0  0
    3.9741    3.0953   -1.6466 H   0  0  0  0  0  0  0  0  0  0  0  0
    3.8070    1.0750   -0.9490 C   0  0  0  0  0  0  0  0  0  0  0  0
    2.8925    0.8768   -1.4998 H   0  0  0  0  0  0  0  0  0  0  0  0
   -1.5820    1.9409    0.0832 C   0  0  0  0  0  0  0  0  0  0  0  0
   -0.5814    3.0218    0.1147 C   0  0  0  0  0  0  0  0  0  0  0  0
    0.7363    2.8414    0.6394 C   0  0  0  0  0  0  0  0  0  0  0  0
    1.5952    3.9675    0.5911 C   0  0  0  0  0  0  0  0  0  0  0  0
    2.6023    3.8456    0.9768 H   0  0  0  0  0  0  0  0  0  0  0  0
    1.1976    5.1828    0.0557 C   0  0  0  0  0  0  0  0  0  0  0  0
    1.9017    6.0118    0.0303 H   0  0  0  0  0  0  0  0  0  0  0  0
   -0.0981    5.3466   -0.4561 C   0  0  0  0  0  0  0  0  0  0  0  0
   -0.4135    6.2951   -0.8811 H   0  0  0  0  0  0  0  0  0  0  0  0
   -0.9720    4.2730   -0.4118 C   0  0  0  0  0  0  0  0  0  0  0  0
   -1.9791    4.3771   -0.8005 H   0  0  0  0  0  0  0  0  0  0  0  0
   -3.8680    1.3702    0.0236 C   0  0  0  0  0  0  0  0  0  0  0  0
   -4.8110    1.9181    0.0048 H   0  0  0  0  0  0  0  0  0  0  0  0
   -3.8129    0.7305    0.9073 H   0  0  0  0  0  0  0  0  0  0  0  0
   -3.7529    0.7695   -0.8805 H   0  0  0  0  0  0  0  0  0  0  0  0
    3.6997   -4.4426    0.1960 H   0  0  0  0  0  0  0  0  0  0  0  0
    5.5149   -2.6493    0.1303 H   0  0  0  0  0  0  0  0  0  0  0  0
   -0.7316   -4.9315    2.3856 H   0  0  0  0  0  0  0  0  0  0  0  0
   -2.2637   -3.5021    3.8461 H   0  0  0  0  0  0  0  0  0  0  0  0
   -0.6442   -4.9295   -2.4263 H   0  0  0  0  0  0  0  0  0  0  0  0
   -2.1756   -3.5020   -3.8894 H   0  0  0  0  0  0  0  0  0  0  0  0
    1.0738    0.3942   -1.9102 F   0  0  0  0  0  0  0  0  0  0  0  0
  1  2  1  0  0  0  0
  3 15  1  6  0  0  0
  3 12  1  0  0  0  0
  4 54  2  0  0  0  0
  4  1  9  0  0  0  0
  6 71  1  0  0  0  0
  6 13  1  0  0  0  0
  7 14  1  0  0  0  0
  7  1  9  0  0  0  0
  8 15  1  0  0  0  0
  9 15  2  0  0  0  0
  9  1  9  0  0  0  0
 10 69  1  0  0  0  0
 11 20  1  0  0  0  0
 11 18  2  0  0  0  0
 11  1  9  0  0  0  0
 12  7  2  0  0  0  0
 12  6  1  0  0  0  0
 13 72  1  0  0  0  0
 14 21  1  0  0  0  0
 14 13  2  0  0  0  0
 16  9  1  0  0  0  0
 17 16  2  0  0  0  0
 17  8  1  0  0  0  0
 18  3  1  0  0  0  0
 18 10  1  0  0  0  0
 19 10  1  0  0  0  0
 19 70  1  0  0  0  0
 20 19  2  0  0  0  0
 21 30  1  0  0  0  0
 21 22  2  0  0  0  0
 22 24  1  0  0  0  0
 23 22  1  0  0  0  0
 24 26  2  0  0  0  0
 24 25  1  0  0  0  0
 26 27  1  0  0  0  0
 28 29  1  0  0  0  0
 28 26  1  0  0  0  0
 30 28  2  0  0  0  0
 31 30  1  0  0  0  0
 32 16  1  0  0  0  0
 33 34  1  0  0  0  0
 33 32  1  0  0  0  0
 35 33  2  0  0  0  0
 36 35  1  0  0  0  0
 37 35  1  0  0  0  0
 37 39  2  0  0  0  0
 38 37  1  0  0  0  0
 39 41  1  0  0  0  0
 40 39  1  0  0  0  0
 41 32  2  0  0  0  0
 41 42  1  0  0  0  0
 43 20  1  0  0  0  0
 43 44  2  0  0  0  0
 44 45  1  0  0  0  0
 46 44  1  0  0  0  0
 46 47  1  0  0  0  0
 48 46  2  0  0  0  0
 49 48  1  0  0  0  0
 50 52  2  0  0  0  0
 50 48  1  0  0  0  0
 51 50  1  0  0  0  0
 52 43  1  0  0  0  0
 53 52  1  0  0  0  0
 54  5  1  0  0  0  0
 54 55  1  0  0  0  0
 55 56  1  0  0  0  0
 56  2  1  0  0  0  0
 57 56  2  0  0  0  0
 57 58  1  0  0  0  0
 59 57  1  0  0  0  0
 60 59  1  0  0  0  0
 61 63  1  0  0  0  0
 61 59  2  0  0  0  0
 62 61  1  0  0  0  0
 63 55  2  0  0  0  0
 64 63  1  0  0  0  0
 65  5  1  0  0  0  0
 65 67  1  0  0  0  0
 66 65  1  0  0  0  0
 68 65  1  0  0  0  0
 73  8  1  0  0  0  0
 74 17  1  0  0  0  0
 75  1  1  0  0  0  0
M  END
$$$$
