
 OpenBabel02052520083D

 46 50  0  0  0  0  0  0  0  0999 V2000
    0.0037   -0.3809   -0.3569 Fe  0  2  0  0  0  0  0  0  0  0  0  0
   -3.3653    2.9315    0.0016 C   0  0  0  0  0  0  0  0  0  0  0  0
   -2.5596    2.5801    1.0894 C   0  0  0  0  0  0  0  0  0  0  0  0
   -3.1635    2.3069   -1.2304 C   0  0  0  0  0  0  0  0  0  0  0  0
   -1.5736    1.6172    0.9149 C   0  0  0  0  0  0  0  0  0  0  0  0
   -0.5965    1.1939    1.9812 C   0  0  0  0  0  0  0  0  0  0  0  0
   -2.1701    1.3401   -1.3407 C   0  0  0  0  0  0  0  0  0  0  0  0
    2.5093    3.1625   -0.4580 C   0  0  0  0  0  0  0  0  0  0  0  0
   -1.3973    1.0145   -0.2879 N   0  0  0  0  0  0  0  0  0  0  0  0
    1.3977    2.3342   -0.3868 C   0  0  0  0  0  0  0  0  0  0  0  0
    3.7824    2.5859   -0.4276 C   0  0  0  0  0  0  0  0  0  0  0  0
   -0.2424   -0.2419    1.7481 N   0  0  1  0  0  0  0  0  0  0  0  0
   -1.3195   -1.0803    2.3744 C   0  0  0  0  0  0  0  0  0  0  0  0
    1.5130    0.9937   -0.2853 N   0  0  0  0  0  0  0  0  0  0  0  0
    1.0969   -0.6324    2.2939 C   0  0  0  0  0  0  0  0  0  0  0  0
    3.8963    1.1972   -0.3603 C   0  0  0  0  0  0  0  0  0  0  0  0
    2.7378    0.4259   -0.3139 C   0  0  0  0  0  0  0  0  0  0  0  0
    1.5461   -1.8975    1.5798 C   0  0  0  0  0  0  0  0  0  0  0  0
    1.5169   -1.7240    0.0801 N   0  0  2  0  0  0  0  0  0  0  0  0
    2.7621   -1.0688   -0.4387 C   0  0  0  0  0  0  0  0  0  0  0  0
    1.4142   -3.0690   -0.5710 C   0  0  0  0  0  0  0  0  0  0  0  0
   -4.1442    3.6786    0.1191 H   0  0  0  0  0  0  0  0  0  0  0  0
   -2.6965    3.0433    2.0613 H   0  0  0  0  0  0  0  0  0  0  0  0
   -3.7690    2.5515   -2.0963 H   0  0  0  0  0  0  0  0  0  0  0  0
   -1.0102    1.3300    2.9857 H   0  0  0  0  0  0  0  0  0  0  0  0
    0.3143    1.7947    1.9163 H   0  0  0  0  0  0  0  0  0  0  0  0
   -1.9722    0.8115   -2.2637 H   0  0  0  0  0  0  0  0  0  0  0  0
    2.3757    4.2358   -0.5375 H   0  0  0  0  0  0  0  0  0  0  0  0
    0.3934    2.7358   -0.4143 H   0  0  0  0  0  0  0  0  0  0  0  0
    4.6715    3.2074   -0.4713 H   0  0  0  0  0  0  0  0  0  0  0  0
   -1.3125   -0.9029    3.4556 H   0  0  0  0  0  0  0  0  0  0  0  0
   -2.2857   -0.7985    1.9585 H   0  0  0  0  0  0  0  0  0  0  0  0
   -1.1547   -2.1354    2.1728 H   0  0  0  0  0  0  0  0  0  0  0  0
    1.0323   -0.8091    3.3736 H   0  0  0  0  0  0  0  0  0  0  0  0
    1.7941    0.1892    2.1301 H   0  0  0  0  0  0  0  0  0  0  0  0
    4.8681    0.7139   -0.3661 H   0  0  0  0  0  0  0  0  0  0  0  0
    0.8747   -2.7240    1.8148 H   0  0  0  0  0  0  0  0  0  0  0  0
    2.5518   -2.1931    1.8984 H   0  0  0  0  0  0  0  0  0  0  0  0
    3.6423   -1.5090    0.0428 H   0  0  0  0  0  0  0  0  0  0  0  0
    2.8164   -1.2989   -1.5073 H   0  0  0  0  0  0  0  0  0  0  0  0
    0.5546   -3.6067   -0.1785 H   0  0  0  0  0  0  0  0  0  0  0  0
    1.2903   -2.9322   -1.6452 H   0  0  0  0  0  0  0  0  0  0  0  0
    2.3310   -3.6359   -0.3725 H   0  0  0  0  0  0  0  0  0  0  0  0
    0.3202   -0.3940   -2.0785 O   0  0  0  0  0  0  0  0  0  0  0  0
   -0.2170   -1.0381   -2.5810 H   0  0  0  0  0  0  0  0  0  0  0  0
   -1.7630   -2.0433   -0.6462 Br  0  0  0  0  0  0  0  0  0  0  0  0
  2 22  1  0  0  0  0
  2  3  1  0  0  0  0
  3 23  1  0  0  0  0
  4  2  2  0  0  0  0
  5  3  2  0  0  0  0
  5  6  1  0  0  0  0
  6 25  1  0  0  0  0
  7  4  1  0  0  0  0
  7  9  2  0  0  0  0
  8 11  2  0  0  0  0
  8 10  1  0  0  0  0
  9  5  1  0  0  0  0
  9  1  9  0  0  0  0
 10 14  2  0  0  0  0
 11 16  1  0  0  0  0
 12  6  1  0  0  0  0
 12 15  1  0  0  0  0
 12 13  1  1  0  0  0
 12  1  9  0  0  0  0
 13 31  1  0  0  0  0
 14  1  9  0  0  0  0
 15 34  1  0  0  0  0
 16 17  2  0  0  0  0
 17 14  1  0  0  0  0
 18 37  1  0  0  0  0
 18 38  1  0  0  0  0
 18 15  1  0  0  0  0
 19 21  1  6  0  0  0
 19 18  1  0  0  0  0
 19  1  9  0  0  0  0
 20 17  1  0  0  0  0
 20 39  1  0  0  0  0
 20 19  1  0  0  0  0
 21 43  1  0  0  0  0
 21 41  1  0  0  0  0
 24  4  1  0  0  0  0
 26  6  1  0  0  0  0
 27  7  1  0  0  0  0
 28  8  1  0  0  0  0
 29 10  1  0  0  0  0
 30 11  1  0  0  0  0
 32 13  1  0  0  0  0
 33 13  1  0  0  0  0
 35 15  1  0  0  0  0
 36 16  1  0  0  0  0
 40 20  1  0  0  0  0
 42 21  1  0  0  0  0
 44  1  1  0  0  0  0
 45 44  1  0  0  0  0
 46  1  1  0  0  0  0
M  CHG  1   1   2
M  END
$$$$
