
 OpenBabel02052520083D

 46 50  0  0  0  0  0  0  0  0999 V2000
    0.0570   -0.5356   -0.4843 Fe  0  2  0  0  0  0  0  0  0  0  0  0
   -4.2722    1.3281   -0.0130 C   0  0  0  0  0  0  0  0  0  0  0  0
   -3.4182    1.1692    1.0834 C   0  0  0  0  0  0  0  0  0  0  0  0
   -3.8352    0.9484   -1.2832 C   0  0  0  0  0  0  0  0  0  0  0  0
   -2.1499    0.6411    0.8783 C   0  0  0  0  0  0  0  0  0  0  0  0
   -1.1132    0.4578    1.9569 C   0  0  0  0  0  0  0  0  0  0  0  0
   -2.5587    0.4145   -1.4246 C   0  0  0  0  0  0  0  0  0  0  0  0
    1.1812    3.6151   -0.0750 C   0  0  0  0  0  0  0  0  0  0  0  0
   -1.7429    0.2775   -0.3638 N   0  0  0  0  0  0  0  0  0  0  0  0
    0.4237    2.4557   -0.1625 C   0  0  0  0  0  0  0  0  0  0  0  0
    2.5736    3.5083   -0.0108 C   0  0  0  0  0  0  0  0  0  0  0  0
   -0.2812   -0.7328    1.5975 N   0  0  1  0  0  0  0  0  0  0  0  0
   -1.0305   -1.9607    2.0282 C   0  0  0  0  0  0  0  0  0  0  0  0
    0.9940    1.2322   -0.1821 N   0  0  0  0  0  0  0  0  0  0  0  0
    1.0908   -0.7221    2.1958 C   0  0  0  0  0  0  0  0  0  0  0  0
    3.1600    2.2438   -0.0703 C   0  0  0  0  0  0  0  0  0  0  0  0
    2.3410    1.1234   -0.1803 C   0  0  0  0  0  0  0  0  0  0  0  0
    1.9627   -1.6699    1.3866 C   0  0  0  0  0  0  0  0  0  0  0  0
    1.9192   -1.3362   -0.0856 N   0  0  2  0  0  0  0  0  0  0  0  0
    2.8841   -0.2486   -0.4485 C   0  0  0  0  0  0  0  0  0  0  0  0
    2.2787   -2.5527   -0.8811 C   0  0  0  0  0  0  0  0  0  0  0  0
   -5.2689    1.7350    0.1273 H   0  0  0  0  0  0  0  0  0  0  0  0
   -3.7340    1.4442    2.0846 H   0  0  0  0  0  0  0  0  0  0  0  0
   -4.4705    1.0521   -2.1561 H   0  0  0  0  0  0  0  0  0  0  0  0
   -1.5729    0.3232    2.9414 H   0  0  0  0  0  0  0  0  0  0  0  0
   -0.4645    1.3358    2.0132 H   0  0  0  0  0  0  0  0  0  0  0  0
   -2.1648    0.0916   -2.3792 H   0  0  0  0  0  0  0  0  0  0  0  0
    0.6864    4.5801   -0.0605 H   0  0  0  0  0  0  0  0  0  0  0  0
   -0.6557    2.4908   -0.2230 H   0  0  0  0  0  0  0  0  0  0  0  0
    3.1929    4.3965    0.0679 H   0  0  0  0  0  0  0  0  0  0  0  0
   -1.1308   -1.9408    3.1189 H   0  0  0  0  0  0  0  0  0  0  0  0
   -2.0148   -1.9647    1.5627 H   0  0  0  0  0  0  0  0  0  0  0  0
   -0.5058   -2.8608    1.7201 H   0  0  0  0  0  0  0  0  0  0  0  0
    1.0536   -1.0417    3.2436 H   0  0  0  0  0  0  0  0  0  0  0  0
    1.4750    0.2978    2.1695 H   0  0  0  0  0  0  0  0  0  0  0  0
    4.2388    2.1251   -0.0555 H   0  0  0  0  0  0  0  0  0  0  0  0
    1.6048   -2.6947    1.4883 H   0  0  0  0  0  0  0  0  0  0  0  0
    2.9994   -1.6494    1.7398 H   0  0  0  0  0  0  0  0  0  0  0  0
    3.8448   -0.4186    0.0498 H   0  0  0  0  0  0  0  0  0  0  0  0
    3.0507   -0.3210   -1.5279 H   0  0  0  0  0  0  0  0  0  0  0  0
    1.6194   -3.3754   -0.6154 H   0  0  0  0  0  0  0  0  0  0  0  0
    2.1599   -2.3279   -1.9409 H   0  0  0  0  0  0  0  0  0  0  0  0
    3.3203   -2.8234   -0.6733 H   0  0  0  0  0  0  0  0  0  0  0  0
    0.4042   -0.2294   -2.1734 O   0  0  0  0  0  0  0  0  0  0  0  0
    0.1241   -0.9687   -2.7500 H   0  0  0  0  0  0  0  0  0  0  0  0
   -0.9079   -2.4892   -0.9769 Cl  0  0  0  0  0  0  0  0  0  0  0  0
  2 22  1  0  0  0  0
  2  3  1  0  0  0  0
  3 23  1  0  0  0  0
  4  2  2  0  0  0  0
  5  3  2  0  0  0  0
  5  6  1  0  0  0  0
  6 26  1  0  0  0  0
  6 25  1  0  0  0  0
  7  4  1  0  0  0  0
  7  9  2  0  0  0  0
  8 28  1  0  0  0  0
  8 11  1  0  0  0  0
  9  5  1  0  0  0  0
  9  1  9  0  0  0  0
 10  8  2  0  0  0  0
 11 30  1  0  0  0  0
 12  6  1  0  0  0  0
 12 13  1  1  0  0  0
 12 15  1  0  0  0  0
 12  1  9  0  0  0  0
 13 31  1  0  0  0  0
 14 17  2  0  0  0  0
 14 10  1  0  0  0  0
 14  1  9  0  0  0  0
 15 34  1  0  0  0  0
 16 36  1  0  0  0  0
 16 11  2  0  0  0  0
 17 16  1  0  0  0  0
 18 37  1  0  0  0  0
 18 38  1  0  0  0  0
 18 15  1  0  0  0  0
 19 21  1  6  0  0  0
 19 18  1  0  0  0  0
 19  1  9  0  0  0  0
 20 17  1  0  0  0  0
 20 19  1  0  0  0  0
 20 39  1  0  0  0  0
 21 43  1  0  0  0  0
 21 41  1  0  0  0  0
 24  4  1  0  0  0  0
 27  7  1  0  0  0  0
 29 10  1  0  0  0  0
 32 13  1  0  0  0  0
 33 13  1  0  0  0  0
 35 15  1  0  0  0  0
 40 20  1  0  0  0  0
 42 21  1  0  0  0  0
 44  1  1  0  0  0  0
 45 44  1  0  0  0  0
 46  1  1  0  0  0  0
M  CHG  1   1   2
M  END
$$$$
