
 OpenBabel02052520083D

 46 50  0  0  0  0  0  0  0  0999 V2000
   -0.0261   -0.6287    0.2281 Fe  0  2  0  0  0  0  0  0  0  0  0  0
    4.5049    0.8089    0.0301 C   0  0  0  0  0  0  0  0  0  0  0  0
    3.7475    0.5359   -1.1137 C   0  0  0  0  0  0  0  0  0  0  0  0
    3.9058    0.6997    1.2851 C   0  0  0  0  0  0  0  0  0  0  0  0
    2.4155    0.1710   -0.9715 C   0  0  0  0  0  0  0  0  0  0  0  0
    1.4952   -0.1054   -2.1333 C   0  0  0  0  0  0  0  0  0  0  0  0
    2.5682    0.3248    1.3661 C   0  0  0  0  0  0  0  0  0  0  0  0
   -0.6540    3.5219   -0.8913 C   0  0  0  0  0  0  0  0  0  0  0  0
    1.8405    0.0780    0.2589 N   0  0  0  0  0  0  0  0  0  0  0  0
   -0.0575    2.3308   -0.5048 C   0  0  0  0  0  0  0  0  0  0  0  0
   -2.0242    3.5349   -1.1662 C   0  0  0  0  0  0  0  0  0  0  0  0
    0.5114   -1.1444   -1.7140 N   0  0  1  0  0  0  0  0  0  0  0  0
    1.1711   -2.4872   -1.7703 C   0  0  0  0  0  0  0  0  0  0  0  0
   -0.7598    1.1808   -0.3872 N   0  0  0  0  0  0  0  0  0  0  0  0
   -0.7682   -1.1277   -2.4818 C   0  0  0  0  0  0  0  0  0  0  0  0
   -2.7539    2.3563   -1.0137 C   0  0  0  0  0  0  0  0  0  0  0  0
   -2.0976    1.2004   -0.6017 C   0  0  0  0  0  0  0  0  0  0  0  0
   -1.8300   -1.8337   -1.6519 C   0  0  0  0  0  0  0  0  0  0  0  0
   -1.9391   -1.2504   -0.2606 N   0  0  2  0  0  0  0  0  0  0  0  0
   -2.8311   -0.0502   -0.2234 C   0  0  0  0  0  0  0  0  0  0  0  0
   -2.4954   -2.2976    0.6550 C   0  0  0  0  0  0  0  0  0  0  0  0
    5.5490    1.0921   -0.0610 H   0  0  0  0  0  0  0  0  0  0  0  0
    4.1871    0.5978   -2.1040 H   0  0  0  0  0  0  0  0  0  0  0  0
    4.4597    0.8939    2.1972 H   0  0  0  0  0  0  0  0  0  0  0  0
    2.0518   -0.4347   -3.0174 H   0  0  0  0  0  0  0  0  0  0  0  0
    0.9488    0.8019   -2.4058 H   0  0  0  0  0  0  0  0  0  0  0  0
    2.0565    0.2235    2.3143 H   0  0  0  0  0  0  0  0  0  0  0  0
   -0.0523    4.4208   -0.9698 H   0  0  0  0  0  0  0  0  0  0  0  0
    0.9965    2.2813   -0.2709 H   0  0  0  0  0  0  0  0  0  0  0  0
   -2.5179    4.4502   -1.4779 H   0  0  0  0  0  0  0  0  0  0  0  0
    1.4249   -2.7110   -2.8123 H   0  0  0  0  0  0  0  0  0  0  0  0
    2.0730   -2.4691   -1.1600 H   0  0  0  0  0  0  0  0  0  0  0  0
    0.5126   -3.2545   -1.3725 H   0  0  0  0  0  0  0  0  0  0  0  0
   -0.6444   -1.6330   -3.4470 H   0  0  0  0  0  0  0  0  0  0  0  0
   -1.0398   -0.0897   -2.6787 H   0  0  0  0  0  0  0  0  0  0  0  0
   -3.8248    2.3335   -1.1886 H   0  0  0  0  0  0  0  0  0  0  0  0
   -1.5771   -2.8875   -1.5331 H   0  0  0  0  0  0  0  0  0  0  0  0
   -2.8063   -1.7884   -2.1463 H   0  0  0  0  0  0  0  0  0  0  0  0
   -3.7172   -0.2188   -0.8451 H   0  0  0  0  0  0  0  0  0  0  0  0
   -3.1673    0.0718    0.8113 H   0  0  0  0  0  0  0  0  0  0  0  0
   -1.8291   -3.1589    0.6501 H   0  0  0  0  0  0  0  0  0  0  0  0
   -2.5612   -1.8946    1.6645 H   0  0  0  0  0  0  0  0  0  0  0  0
   -3.4911   -2.5923    0.3045 H   0  0  0  0  0  0  0  0  0  0  0  0
    0.4282   -2.1976    0.8189 O   0  0  0  0  0  0  0  0  0  0  0  0
    0.3770   -2.2911    1.7917 H   0  0  0  0  0  0  0  0  0  0  0  0
   -0.6715    0.1326    2.4891 Br  0  0  0  0  0  0  0  0  0  0  0  0
  1 44  1  0  0  0  0
  1 46  1  0  0  0  0
  2  4  1  0  0  0  0
  3  5  1  0  0  0  0
  3  2  2  0  0  0  0
  4  7  2  0  0  0  0
  4 24  1  0  0  0  0
  5  9  2  0  0  0  0
  6 12  1  0  0  0  0
  6  5  1  0  0  0  0
  7 27  1  0  0  0  0
  8 10  1  0  0  0  0
  9  7  1  0  0  0  0
  9  1  9  0  0  0  0
 10 14  2  0  0  0  0
 10 29  1  0  0  0  0
 11 16  1  0  0  0  0
 11  8  2  0  0  0  0
 12 13  1  6  0  0  0
 12  1  9  0  0  0  0
 13 33  1  0  0  0  0
 13 32  1  0  0  0  0
 14  1  9  0  0  0  0
 15 12  1  0  0  0  0
 15 18  1  0  0  0  0
 16 17  2  0  0  0  0
 17 14  1  0  0  0  0
 17 20  1  0  0  0  0
 18 37  1  0  0  0  0
 18 19  1  0  0  0  0
 19 20  1  0  0  0  0
 19 21  1  1  0  0  0
 19  1  9  0  0  0  0
 20 40  1  0  0  0  0
 21 42  1  0  0  0  0
 22  2  1  0  0  0  0
 23  3  1  0  0  0  0
 25  6  1  0  0  0  0
 26  6  1  0  0  0  0
 28  8  1  0  0  0  0
 30 11  1  0  0  0  0
 31 13  1  0  0  0  0
 34 15  1  0  0  0  0
 35 15  1  0  0  0  0
 36 16  1  0  0  0  0
 38 18  1  0  0  0  0
 39 20  1  0  0  0  0
 41 21  1  0  0  0  0
 43 21  1  0  0  0  0
 44 45  1  0  0  0  0
M  CHG  1   1   2
M  END
$$$$
