
 OpenBabel02052520083D

 46 50  0  0  0  0  0  0  0  0999 V2000
   -0.0603   -0.6284    0.4485 Fe  0  2  0  0  0  0  0  0  0  0  0  0
    4.4315    0.8672   -0.0112 C   0  0  0  0  0  0  0  0  0  0  0  0
    3.5961    0.6659   -1.1145 C   0  0  0  0  0  0  0  0  0  0  0  0
    3.9294    0.6509    1.2730 C   0  0  0  0  0  0  0  0  0  0  0  0
    2.2842    0.2635   -0.9038 C   0  0  0  0  0  0  0  0  0  0  0  0
    1.2742    0.0459   -1.9960 C   0  0  0  0  0  0  0  0  0  0  0  0
    2.6087    0.2424    1.4241 C   0  0  0  0  0  0  0  0  0  0  0  0
   -0.8069    3.5939   -0.3516 C   0  0  0  0  0  0  0  0  0  0  0  0
    1.8069    0.0658    0.3540 N   0  0  0  0  0  0  0  0  0  0  0  0
   -0.1671    2.3867   -0.1028 C   0  0  0  0  0  0  0  0  0  0  0  0
   -2.1945    3.6026   -0.5113 C   0  0  0  0  0  0  0  0  0  0  0  0
    0.3441   -1.0338   -1.5510 N   0  0  1  0  0  0  0  0  0  0  0  0
    1.0086   -2.3595   -1.7568 C   0  0  0  0  0  0  0  0  0  0  0  0
   -0.8412    1.2209   -0.0114 N   0  0  0  0  0  0  0  0  0  0  0  0
   -0.9871   -0.9778   -2.2285 C   0  0  0  0  0  0  0  0  0  0  0  0
   -2.8950    2.4033   -0.3839 C   0  0  0  0  0  0  0  0  0  0  0  0
   -2.1892    1.2343   -0.1126 C   0  0  0  0  0  0  0  0  0  0  0  0
   -1.9788   -1.7486   -1.3782 C   0  0  0  0  0  0  0  0  0  0  0  0
   -1.9815   -1.2444    0.0488 N   0  0  2  0  0  0  0  0  0  0  0  0
   -2.8754   -0.0541    0.2349 C   0  0  0  0  0  0  0  0  0  0  0  0
   -2.4494   -2.3504    0.9467 C   0  0  0  0  0  0  0  0  0  0  0  0
    5.4614    1.1787   -0.1556 H   0  0  0  0  0  0  0  0  0  0  0  0
    3.9594    0.8106   -2.1269 H   0  0  0  0  0  0  0  0  0  0  0  0
    4.5462    0.7895    2.1544 H   0  0  0  0  0  0  0  0  0  0  0  0
    1.7504   -0.2234   -2.9448 H   0  0  0  0  0  0  0  0  0  0  0  0
    0.6974    0.9600   -2.1606 H   0  0  0  0  0  0  0  0  0  0  0  0
    2.1694    0.0599    2.3961 H   0  0  0  0  0  0  0  0  0  0  0  0
   -0.2243    4.5065   -0.4154 H   0  0  0  0  0  0  0  0  0  0  0  0
    0.9049    2.3387    0.0337 H   0  0  0  0  0  0  0  0  0  0  0  0
   -2.7231    4.5285   -0.7154 H   0  0  0  0  0  0  0  0  0  0  0  0
    1.1758   -2.5052   -2.8296 H   0  0  0  0  0  0  0  0  0  0  0  0
    1.9579   -2.3710   -1.2236 H   0  0  0  0  0  0  0  0  0  0  0  0
    0.3948   -3.1625   -1.3595 H   0  0  0  0  0  0  0  0  0  0  0  0
   -0.9226   -1.4120   -3.2332 H   0  0  0  0  0  0  0  0  0  0  0  0
   -1.2796    0.0677   -2.3304 H   0  0  0  0  0  0  0  0  0  0  0  0
   -3.9764    2.3742   -0.4712 H   0  0  0  0  0  0  0  0  0  0  0  0
   -1.7103   -2.8043   -1.3392 H   0  0  0  0  0  0  0  0  0  0  0  0
   -2.9918   -1.6823   -1.7886 H   0  0  0  0  0  0  0  0  0  0  0  0
   -3.8049   -0.1981   -0.3264 H   0  0  0  0  0  0  0  0  0  0  0  0
   -3.1309   -0.0125    1.2983 H   0  0  0  0  0  0  0  0  0  0  0  0
   -1.7718   -3.1962    0.8442 H   0  0  0  0  0  0  0  0  0  0  0  0
   -2.4428   -2.0033    1.9787 H   0  0  0  0  0  0  0  0  0  0  0  0
   -3.4650   -2.6401    0.6542 H   0  0  0  0  0  0  0  0  0  0  0  0
    0.4428   -2.2679    0.8573 O   0  0  0  0  0  0  0  0  0  0  0  0
    0.5398   -2.3573    1.8280 H   0  0  0  0  0  0  0  0  0  0  0  0
   -0.4660   -0.1424    2.5685 Cl  0  0  0  0  0  0  0  0  0  0  0  0
  1 44  1  0  0  0  0
  1 46  1  0  0  0  0
  2  4  1  0  0  0  0
  3  5  1  0  0  0  0
  3  2  2  0  0  0  0
  4  7  2  0  0  0  0
  4 24  1  0  0  0  0
  5  9  2  0  0  0  0
  6 12  1  0  0  0  0
  6  5  1  0  0  0  0
  7 27  1  0  0  0  0
  8 10  1  0  0  0  0
  9  7  1  0  0  0  0
  9  1  9  0  0  0  0
 10 14  2  0  0  0  0
 10 29  1  0  0  0  0
 11 16  1  0  0  0  0
 11  8  2  0  0  0  0
 12 13  1  6  0  0  0
 12  1  9  0  0  0  0
 13 33  1  0  0  0  0
 13 32  1  0  0  0  0
 14  1  9  0  0  0  0
 15 12  1  0  0  0  0
 15 18  1  0  0  0  0
 16 17  2  0  0  0  0
 17 14  1  0  0  0  0
 17 20  1  0  0  0  0
 18 37  1  0  0  0  0
 18 19  1  0  0  0  0
 19 20  1  0  0  0  0
 19 21  1  1  0  0  0
 19  1  9  0  0  0  0
 20 40  1  0  0  0  0
 21 42  1  0  0  0  0
 22  2  1  0  0  0  0
 23  3  1  0  0  0  0
 25  6  1  0  0  0  0
 26  6  1  0  0  0  0
 28  8  1  0  0  0  0
 30 11  1  0  0  0  0
 31 13  1  0  0  0  0
 34 15  1  0  0  0  0
 35 15  1  0  0  0  0
 36 16  1  0  0  0  0
 38 18  1  0  0  0  0
 39 20  1  0  0  0  0
 41 21  1  0  0  0  0
 43 21  1  0  0  0  0
 44 45  1  0  0  0  0
M  CHG  1   1   2
M  END
$$$$
