
 OpenBabel02052520083D

 46 50  0  0  0  0  0  0  0  0999 V2000
    0.0455   -0.6392   -0.5374 Fe  0  2  0  0  0  0  0  0  0  0  0  0
   -4.3672    0.8826   -0.1057 C   0  0  0  0  0  0  0  0  0  0  0  0
   -3.5832    0.5658    1.0107 C   0  0  0  0  0  0  0  0  0  0  0  0
   -3.8127    0.8103   -1.3860 C   0  0  0  0  0  0  0  0  0  0  0  0
   -2.2634    0.1805    0.8154 C   0  0  0  0  0  0  0  0  0  0  0  0
   -1.2719   -0.0988    1.9224 C   0  0  0  0  0  0  0  0  0  0  0  0
   -2.4872    0.4097   -1.5221 C   0  0  0  0  0  0  0  0  0  0  0  0
    0.8315    3.5570    0.4378 C   0  0  0  0  0  0  0  0  0  0  0  0
   -1.7512    0.1070   -0.4390 N   0  0  0  0  0  0  0  0  0  0  0  0
    0.1739    2.3546    0.2164 C   0  0  0  0  0  0  0  0  0  0  0  0
    2.2276    3.5816    0.3963 C   0  0  0  0  0  0  0  0  0  0  0  0
   -0.2716   -1.1024    1.4351 N   0  0  1  0  0  0  0  0  0  0  0  0
   -0.8427   -2.4744    1.6396 C   0  0  0  0  0  0  0  0  0  0  0  0
    0.8402    1.2069   -0.0358 N   0  0  0  0  0  0  0  0  0  0  0  0
    1.0871   -0.9866    2.0563 C   0  0  0  0  0  0  0  0  0  0  0  0
    2.9146    2.4026    0.1066 C   0  0  0  0  0  0  0  0  0  0  0  0
    2.1908    1.2365   -0.1229 C   0  0  0  0  0  0  0  0  0  0  0  0
    2.1028   -1.6757    1.1451 C   0  0  0  0  0  0  0  0  0  0  0  0
    1.9805   -1.2209   -0.2927 N   0  0  2  0  0  0  0  0  0  0  0  0
    2.8265   -0.0304   -0.6076 C   0  0  0  0  0  0  0  0  0  0  0  0
    2.3605   -2.3283   -1.2244 C   0  0  0  0  0  0  0  0  0  0  0  0
   -5.4028    1.1808    0.0267 H   0  0  0  0  0  0  0  0  0  0  0  0
   -3.9924    0.6167    2.0146 H   0  0  0  0  0  0  0  0  0  0  0  0
   -4.3945    1.0521   -2.2688 H   0  0  0  0  0  0  0  0  0  0  0  0
   -1.7693   -0.4582    2.8285 H   0  0  0  0  0  0  0  0  0  0  0  0
   -0.7412    0.8217    2.1819 H   0  0  0  0  0  0  0  0  0  0  0  0
   -1.9801    0.3234   -2.4765 H   0  0  0  0  0  0  0  0  0  0  0  0
    0.2550    4.4539    0.6362 H   0  0  0  0  0  0  0  0  0  0  0  0
   -0.9058    2.3002    0.2304 H   0  0  0  0  0  0  0  0  0  0  0  0
    2.7709    4.5045    0.5743 H   0  0  0  0  0  0  0  0  0  0  0  0
   -0.9536   -2.6507    2.7145 H   0  0  0  0  0  0  0  0  0  0  0  0
   -1.8117   -2.5346    1.1460 H   0  0  0  0  0  0  0  0  0  0  0  0
   -0.1936   -3.2277    1.2014 H   0  0  0  0  0  0  0  0  0  0  0  0
    1.0975   -1.4551    3.0470 H   0  0  0  0  0  0  0  0  0  0  0  0
    1.3189    0.0710    2.1807 H   0  0  0  0  0  0  0  0  0  0  0  0
    3.9978    2.3866    0.0409 H   0  0  0  0  0  0  0  0  0  0  0  0
    1.9401   -2.7539    1.1500 H   0  0  0  0  0  0  0  0  0  0  0  0
    3.1215   -1.4995    1.5057 H   0  0  0  0  0  0  0  0  0  0  0  0
    3.8389   -0.1708   -0.2134 H   0  0  0  0  0  0  0  0  0  0  0  0
    2.8928    0.0323   -1.6983 H   0  0  0  0  0  0  0  0  0  0  0  0
    1.7546   -3.2053   -1.0025 H   0  0  0  0  0  0  0  0  0  0  0  0
    2.1659   -1.9988   -2.2457 H   0  0  0  0  0  0  0  0  0  0  0  0
    3.4234   -2.5643   -1.1025 H   0  0  0  0  0  0  0  0  0  0  0  0
   -0.4995   -2.2280   -0.9856 O   0  0  0  0  0  0  0  0  0  0  0  0
   -0.5241   -2.2839   -1.9636 H   0  0  0  0  0  0  0  0  0  0  0  0
    0.3108   -0.1948   -2.2213 F   0  0  0  0  0  0  0  0  0  0  0  0
  2 22  1  0  0  0  0
  2  3  1  0  0  0  0
  3 23  1  0  0  0  0
  4  2  2  0  0  0  0
  5  3  2  0  0  0  0
  5  6  1  0  0  0  0
  6 26  1  0  0  0  0
  6 25  1  0  0  0  0
  7  4  1  0  0  0  0
  7  9  2  0  0  0  0
  8 28  1  0  0  0  0
  9  5  1  0  0  0  0
  9  1  9  0  0  0  0
 10 29  1  0  0  0  0
 10  8  2  0  0  0  0
 11  8  1  0  0  0  0
 11 30  1  0  0  0  0
 12 13  1  1  0  0  0
 12  6  1  0  0  0  0
 12 15  1  0  0  0  0
 12  1  9  0  0  0  0
 13 31  1  0  0  0  0
 14 10  1  0  0  0  0
 14  1  9  0  0  0  0
 15 35  1  0  0  0  0
 15 34  1  0  0  0  0
 16 11  2  0  0  0  0
 17 14  2  0  0  0  0
 17 16  1  0  0  0  0
 18 37  1  0  0  0  0
 18 38  1  0  0  0  0
 18 15  1  0  0  0  0
 19 21  1  6  0  0  0
 19 18  1  0  0  0  0
 19  1  9  0  0  0  0
 20 19  1  0  0  0  0
 20 39  1  0  0  0  0
 20 17  1  0  0  0  0
 21 43  1  0  0  0  0
 21 41  1  0  0  0  0
 24  4  1  0  0  0  0
 27  7  1  0  0  0  0
 32 13  1  0  0  0  0
 33 13  1  0  0  0  0
 36 16  1  0  0  0  0
 40 20  1  0  0  0  0
 42 21  1  0  0  0  0
 44  1  1  0  0  0  0
 45 44  1  0  0  0  0
 46  1  1  0  0  0  0
M  CHG  1   1   2
M  END
$$$$
