
 OpenBabel02052520083D

 60 63  0  0  0  0  0  0  0  0999 V2000
   -0.0143    0.0292   -0.2070 Fe  0  2  0  0  0  0  0  0  0  0  0  0
   -1.5338    1.5747   -0.4237 N   0  0  1  0  0  0  0  0  0  0  0  0
    1.3938    1.7333   -0.1077 N   0  0  2  0  0  0  0  0  0  0  0  0
    1.6360   -1.4707   -0.2714 N   0  0  2  0  0  0  0  0  0  0  0  0
   -1.3025   -1.6894   -0.5999 N   0  0  2  0  0  0  0  0  0  0  0  0
   -0.7500    2.6903   -1.0549 C   0  0  0  0  0  0  0  0  0  0  0  0
    0.5451    2.9630   -0.3072 C   0  0  0  0  0  0  0  0  0  0  0  0
    2.3812    1.5776   -1.2324 C   0  0  0  0  0  0  0  0  0  0  0  0
    3.2450    0.3088   -1.1965 C   0  0  0  0  0  0  0  0  0  0  0  0
    2.5608   -1.0536   -1.3810 C   0  0  0  0  0  0  0  0  0  0  0  0
    0.9514   -2.7744   -0.5910 C   0  0  0  0  0  0  0  0  0  0  0  0
   -0.3663   -2.6106   -1.3300 C   0  0  0  0  0  0  0  0  0  0  0  0
   -2.4791   -1.3761   -1.4754 C   0  0  0  0  0  0  0  0  0  0  0  0
   -3.3102   -0.1653   -1.0467 C   0  0  0  0  0  0  0  0  0  0  0  0
   -2.6638    1.1911   -1.3329 C   0  0  0  0  0  0  0  0  0  0  0  0
   -2.0911    1.9974    0.8909 C   0  0  0  0  0  0  0  0  0  0  0  0
    2.1110    1.8954    1.1859 C   0  0  0  0  0  0  0  0  0  0  0  0
    2.4155   -1.6900    0.9815 C   0  0  0  0  0  0  0  0  0  0  0  0
   -1.7987   -2.3361    0.6509 C   0  0  0  0  0  0  0  0  0  0  0  0
   -1.3613    3.6017   -1.0745 H   0  0  0  0  0  0  0  0  0  0  0  0
   -0.5355    2.3967   -2.0805 H   0  0  0  0  0  0  0  0  0  0  0  0
    0.3330    3.3817    0.6778 H   0  0  0  0  0  0  0  0  0  0  0  0
    1.1217    3.7196   -0.8515 H   0  0  0  0  0  0  0  0  0  0  0  0
    3.0481    2.4494   -1.1962 H   0  0  0  0  0  0  0  0  0  0  0  0
    1.8155    1.6161   -2.1611 H   0  0  0  0  0  0  0  0  0  0  0  0
    3.9348    0.4055   -2.0437 H   0  0  0  0  0  0  0  0  0  0  0  0
    3.8923    0.3034   -0.3147 H   0  0  0  0  0  0  0  0  0  0  0  0
    1.9868   -1.0598   -2.3050 H   0  0  0  0  0  0  0  0  0  0  0  0
    3.3411   -1.8231   -1.4514 H   0  0  0  0  0  0  0  0  0  0  0  0
    1.6248   -3.3988   -1.1897 H   0  0  0  0  0  0  0  0  0  0  0  0
    0.7909   -3.2968    0.3528 H   0  0  0  0  0  0  0  0  0  0  0  0
   -0.8407   -3.5931   -1.4498 H   0  0  0  0  0  0  0  0  0  0  0  0
   -0.1944   -2.1945   -2.3213 H   0  0  0  0  0  0  0  0  0  0  0  0
   -3.1157   -2.2692   -1.5038 H   0  0  0  0  0  0  0  0  0  0  0  0
   -2.1188   -1.2319   -2.4989 H   0  0  0  0  0  0  0  0  0  0  0  0
   -3.6245   -0.2477   -0.0020 H   0  0  0  0  0  0  0  0  0  0  0  0
   -4.2378   -0.1986   -1.6295 H   0  0  0  0  0  0  0  0  0  0  0  0
   -2.2876    1.2107   -2.3592 H   0  0  0  0  0  0  0  0  0  0  0  0
   -3.4216    1.9824   -1.2679 H   0  0  0  0  0  0  0  0  0  0  0  0
   -2.7706    2.8479    0.7595 H   0  0  0  0  0  0  0  0  0  0  0  0
   -1.2861    2.2866    1.5631 H   0  0  0  0  0  0  0  0  0  0  0  0
   -2.6374    1.1678    1.3387 H   0  0  0  0  0  0  0  0  0  0  0  0
    2.7349    2.7968    1.1571 H   0  0  0  0  0  0  0  0  0  0  0  0
    2.7451    1.0388    1.3879 H   0  0  0  0  0  0  0  0  0  0  0  0
    1.3869    1.9897    1.9944 H   0  0  0  0  0  0  0  0  0  0  0  0
    3.1460   -2.4914    0.8165 H   0  0  0  0  0  0  0  0  0  0  0  0
    1.7450   -1.9731    1.7888 H   0  0  0  0  0  0  0  0  0  0  0  0
    2.9549   -0.7919    1.2649 H   0  0  0  0  0  0  0  0  0  0  0  0
   -2.3503   -3.2501    0.4021 H   0  0  0  0  0  0  0  0  0  0  0  0
   -2.4635   -1.6505    1.1757 H   0  0  0  0  0  0  0  0  0  0  0  0
   -0.9715   -2.5775    1.3114 H   0  0  0  0  0  0  0  0  0  0  0  0
   -0.2448   -0.3607    2.8754 C   0  0  0  0  0  0  0  0  0  0  0  0
   -0.1557   -0.0585    1.5320 N   0  0  0  0  0  2  0  0  0  0  0  0
   -0.6520    0.6886    3.8682 C   0  0  0  0  0  0  0  0  0  0  0  0
   -0.4269    0.3194    4.8718 H   0  0  0  0  0  0  0  0  0  0  0  0
   -0.1332    1.6373    3.6987 H   0  0  0  0  0  0  0  0  0  0  0  0
   -1.7306    0.8726    3.7953 H   0  0  0  0  0  0  0  0  0  0  0  0
    0.0188   -1.5325    3.1471 O   0  0  0  0  0  0  0  0  0  0  0  0
    0.1704    0.1522   -1.9831 O   0  0  0  0  0  0  0  0  0  0  0  0
   -0.6257    0.0072   -2.5185 H   0  0  0  0  0  0  0  0  0  0  0  0
  1 53  1  0  0  0  0
  2 16  1  1  0  0  0
  2  1  9  0  0  0  0
  3 17  1  1  0  0  0
  3  1  9  0  0  0  0
  4 18  1  1  0  0  0
  4  1  9  0  0  0  0
  5 19  1  1  0  0  0
  5  1  9  0  0  0  0
  6  2  1  0  0  0  0
  6  7  1  0  0  0  0
  7  3  1  0  0  0  0
  7 22  1  0  0  0  0
  8  9  1  0  0  0  0
  8 24  1  0  0  0  0
  8  3  1  0  0  0  0
  9 27  1  0  0  0  0
 10  9  1  0  0  0  0
 10  4  1  0  0  0  0
 11  4  1  0  0  0  0
 11 31  1  0  0  0  0
 12  5  1  0  0  0  0
 12 11  1  0  0  0  0
 13 14  1  0  0  0  0
 13  5  1  0  0  0  0
 14 36  1  0  0  0  0
 15 39  1  0  0  0  0
 15 14  1  0  0  0  0
 15  2  1  0  0  0  0
 16 42  1  0  0  0  0
 16 41  1  0  0  0  0
 17 44  1  0  0  0  0
 17 45  1  0  0  0  0
 18 48  1  0  0  0  0
 18 47  1  0  0  0  0
 19 50  1  0  0  0  0
 19 51  1  0  0  0  0
 20  6  1  0  0  0  0
 21  6  1  0  0  0  0
 23  7  1  0  0  0  0
 25  8  1  0  0  0  0
 26  9  1  0  0  0  0
 28 10  1  0  0  0  0
 29 10  1  0  0  0  0
 30 11  1  0  0  0  0
 32 12  1  0  0  0  0
 33 12  1  0  0  0  0
 34 13  1  0  0  0  0
 35 13  1  0  0  0  0
 37 14  1  0  0  0  0
 38 15  1  0  0  0  0
 40 16  1  0  0  0  0
 43 17  1  0  0  0  0
 46 18  1  0  0  0  0
 49 19  1  0  0  0  0
 52 58  2  0  0  0  0
 52 54  1  0  0  0  0
 53 52  1  0  0  0  0
 54 55  1  0  0  0  0
 56 54  1  0  0  0  0
 57 54  1  0  0  0  0
 59  1  1  0  0  0  0
 60 59  1  0  0  0  0
M  RAD  1  53   2
M  CHG  1   1   2
M  END
$$$$
