
 OpenBabel02052520083D

 44 49  0  0  0  0  0  0  0  0999 V2000
    0.2011   -0.3788   -0.7319 Fe  0  3  0  0  0  0  0  0  0  0  0  0
    0.1347   -0.1844   -2.5527 O   0  0  0  0  0  0  0  0  0  0  0  0
    0.1487    0.0029    1.5815 N   0  0  2  0  0  0  0  0  0  0  0  0
   -0.5698    1.6935   -0.5265 N   0  0  0  0  0  0  0  0  0  0  0  0
    2.1522    0.3391   -0.2109 N   0  0  0  0  0  0  0  0  0  0  0  0
   -1.8300   -0.8142   -0.1550 N   0  0  0  0  0  0  0  0  0  0  0  0
    0.8637   -2.7715   -0.4855 Br  0  0  0  0  0  0  0  0  0  0  0  0
   -1.0295    2.3604   -1.5989 C   0  0  0  0  0  0  0  0  0  0  0  0
   -1.7493    3.5451   -1.4776 C   0  0  0  0  0  0  0  0  0  0  0  0
   -2.0116    4.0374   -0.1979 C   0  0  0  0  0  0  0  0  0  0  0  0
   -1.5342    3.3383    0.9108 C   0  0  0  0  0  0  0  0  0  0  0  0
   -0.8041    2.1677    0.7065 C   0  0  0  0  0  0  0  0  0  0  0  0
   -0.1620    1.4274    1.8624 C   0  0  0  0  0  0  0  0  0  0  0  0
    2.9992    0.8106   -1.1398 C   0  0  0  0  0  0  0  0  0  0  0  0
    4.2851    1.2297   -0.8130 C   0  0  0  0  0  0  0  0  0  0  0  0
    4.6897    1.1589    0.5209 C   0  0  0  0  0  0  0  0  0  0  0  0
    3.8002    0.6735    1.4821 C   0  0  0  0  0  0  0  0  0  0  0  0
    2.5331    0.2608    1.0795 C   0  0  0  0  0  0  0  0  0  0  0  0
    1.5181   -0.3471    2.0255 C   0  0  0  0  0  0  0  0  0  0  0  0
   -2.8199   -0.8908   -1.0570 C   0  0  0  0  0  0  0  0  0  0  0  0
   -4.1425   -1.1005   -0.6783 C   0  0  0  0  0  0  0  0  0  0  0  0
   -4.4341   -1.2192    0.6814 C   0  0  0  0  0  0  0  0  0  0  0  0
   -3.3985   -1.1301    1.6140 C   0  0  0  0  0  0  0  0  0  0  0  0
   -2.0972   -0.9336    1.1589 C   0  0  0  0  0  0  0  0  0  0  0  0
   -0.8930   -0.9236    2.0766 C   0  0  0  0  0  0  0  0  0  0  0  0
   -0.8083    1.8978   -2.5549 H   0  0  0  0  0  0  0  0  0  0  0  0
   -2.1020    4.0596   -2.3649 H   0  0  0  0  0  0  0  0  0  0  0  0
   -2.5818    4.9517   -0.0636 H   0  0  0  0  0  0  0  0  0  0  0  0
   -1.7197    3.6960    1.9191 H   0  0  0  0  0  0  0  0  0  0  0  0
   -0.7843    1.5155    2.7620 H   0  0  0  0  0  0  0  0  0  0  0  0
    0.7805    1.9398    2.0861 H   0  0  0  0  0  0  0  0  0  0  0  0
    2.6092    0.8352   -2.1520 H   0  0  0  0  0  0  0  0  0  0  0  0
    4.9479    1.6028   -1.5861 H   0  0  0  0  0  0  0  0  0  0  0  0
    5.6847    1.4812    0.8123 H   0  0  0  0  0  0  0  0  0  0  0  0
    4.0855    0.6098    2.5274 H   0  0  0  0  0  0  0  0  0  0  0  0
    1.6164   -1.4357    1.9700 H   0  0  0  0  0  0  0  0  0  0  0  0
    1.7094   -0.0368    3.0616 H   0  0  0  0  0  0  0  0  0  0  0  0
   -2.5152   -0.7748   -2.0920 H   0  0  0  0  0  0  0  0  0  0  0  0
   -4.9201   -1.1643   -1.4316 H   0  0  0  0  0  0  0  0  0  0  0  0
   -5.4555   -1.3769    1.0138 H   0  0  0  0  0  0  0  0  0  0  0  0
   -3.5946   -1.2183    2.6779 H   0  0  0  0  0  0  0  0  0  0  0  0
   -1.1883   -0.6927    3.1092 H   0  0  0  0  0  0  0  0  0  0  0  0
   -0.4657   -1.9318    2.0615 H   0  0  0  0  0  0  0  0  0  0  0  0
    0.3636   -0.9715   -3.0755 H   0  0  0  0  0  0  0  0  0  0  0  0
  1  7  1  0  0  0  0
  2  1  1  0  0  0  0
  3 13  1  1  0  0  0
  3 19  1  0  0  0  0
  3 25  1  0  0  0  0
  3  1  9  0  0  0  0
  4 12  1  0  0  0  0
  4  1  9  0  0  0  0
  5 18  1  0  0  0  0
  5  1  9  0  0  0  0
  6 24  1  0  0  0  0
  6  1  9  0  0  0  0
  8  9  1  0  0  0  0
  8  4  2  0  0  0  0
  9 10  2  0  0  0  0
 10 28  1  0  0  0  0
 10 11  1  0  0  0  0
 11 29  1  0  0  0  0
 12 11  2  0  0  0  0
 12 13  1  0  0  0  0
 13 31  1  0  0  0  0
 13 30  1  0  0  0  0
 14 15  1  0  0  0  0
 14  5  2  0  0  0  0
 15 16  2  0  0  0  0
 16 34  1  0  0  0  0
 16 17  1  0  0  0  0
 17 35  1  0  0  0  0
 18 17  2  0  0  0  0
 18 19  1  0  0  0  0
 19 37  1  0  0  0  0
 20 21  1  0  0  0  0
 20  6  2  0  0  0  0
 21 22  2  0  0  0  0
 22 40  1  0  0  0  0
 22 23  1  0  0  0  0
 23 41  1  0  0  0  0
 24 23  2  0  0  0  0
 24 25  1  0  0  0  0
 25 42  1  0  0  0  0
 26  8  1  0  0  0  0
 27  9  1  0  0  0  0
 32 14  1  0  0  0  0
 33 15  1  0  0  0  0
 36 19  1  0  0  0  0
 38 20  1  0  0  0  0
 39 21  1  0  0  0  0
 43 25  1  0  0  0  0
 44  2  1  0  0  0  0
M  CHG  1   1   1
M  END
$$$$
