
 OpenBabel02052520083D

 59 66  0  0  0  0  0  0  0  0999 V2000
    0.6300   -0.2812   -0.2773 Fe  0  3  0  0  0  0  0  0  0  0  0  0
   -0.9199   -1.6747    0.3022 O   0  0  2  0  0  0  0  0  0  0  0  0
    2.2117    1.3147   -0.3382 N   0  0  2  0  0  0  0  0  0  0  0  0
    0.2515    0.8382    1.6222 N   0  0  0  0  0  0  0  0  0  0  0  0
   -0.5059    1.5066   -1.0227 N   0  0  0  0  0  0  0  0  0  0  0  0
    2.3729   -1.2337    0.6648 N   0  0  0  0  0  0  0  0  0  0  0  0
    0.9578   -1.2747   -2.5734 Br  0  0  0  0  0  0  0  0  0  0  0  0
   -0.8439    0.6747    2.3812 C   0  0  0  0  0  0  0  0  0  0  0  0
   -1.2279    1.5978    3.3491 C   0  0  0  0  0  0  0  0  0  0  0  0
   -0.4471    2.7417    3.5221 C   0  0  0  0  0  0  0  0  0  0  0  0
    0.6856    2.9147    2.7273 C   0  0  0  0  0  0  0  0  0  0  0  0
    1.0095    1.9357    1.7871 C   0  0  0  0  0  0  0  0  0  0  0  0
    2.2761    2.0361    0.9543 C   0  0  0  0  0  0  0  0  0  0  0  0
   -1.8293    1.7174   -1.0070 C   0  0  0  0  0  0  0  0  0  0  0  0
   -2.4023    2.9261   -1.3955 C   0  0  0  0  0  0  0  0  0  0  0  0
   -1.5583    3.9601   -1.7998 C   0  0  0  0  0  0  0  0  0  0  0  0
   -0.1789    3.7468   -1.8022 C   0  0  0  0  0  0  0  0  0  0  0  0
    0.3140    2.5021   -1.4132 C   0  0  0  0  0  0  0  0  0  0  0  0
    1.7933    2.1694   -1.4702 C   0  0  0  0  0  0  0  0  0  0  0  0
    2.3841   -2.3269    1.4405 C   0  0  0  0  0  0  0  0  0  0  0  0
    3.5625   -2.9037    1.9062 C   0  0  0  0  0  0  0  0  0  0  0  0
    4.7741   -2.3056    1.5576 C   0  0  0  0  0  0  0  0  0  0  0  0
    4.7631   -1.1598    0.7608 C   0  0  0  0  0  0  0  0  0  0  0  0
    3.5405   -0.6542    0.3219 C   0  0  0  0  0  0  0  0  0  0  0  0
    3.4449    0.5418   -0.6078 C   0  0  0  0  0  0  0  0  0  0  0  0
   -1.4248   -0.2181    2.1761 H   0  0  0  0  0  0  0  0  0  0  0  0
   -2.1212    1.4272    3.9404 H   0  0  0  0  0  0  0  0  0  0  0  0
   -0.7189    3.4915    4.2590 H   0  0  0  0  0  0  0  0  0  0  0  0
    1.3106    3.7965    2.8319 H   0  0  0  0  0  0  0  0  0  0  0  0
    3.0867    1.5942    1.5448 H   0  0  0  0  0  0  0  0  0  0  0  0
    2.5414    3.0900    0.7979 H   0  0  0  0  0  0  0  0  0  0  0  0
   -2.4418    0.8888   -0.6653 H   0  0  0  0  0  0  0  0  0  0  0  0
   -3.4798    3.0494   -1.3721 H   0  0  0  0  0  0  0  0  0  0  0  0
   -1.9647    4.9201   -2.1035 H   0  0  0  0  0  0  0  0  0  0  0  0
    0.5065    4.5320   -2.1060 H   0  0  0  0  0  0  0  0  0  0  0  0
    1.9604    1.5896   -2.3846 H   0  0  0  0  0  0  0  0  0  0  0  0
    2.3943    3.0882   -1.5284 H   0  0  0  0  0  0  0  0  0  0  0  0
    1.4094   -2.7391    1.6844 H   0  0  0  0  0  0  0  0  0  0  0  0
    3.5283   -3.7922    2.5274 H   0  0  0  0  0  0  0  0  0  0  0  0
    5.7151   -2.7212    1.9054 H   0  0  0  0  0  0  0  0  0  0  0  0
    5.6883   -0.6677    0.4773 H   0  0  0  0  0  0  0  0  0  0  0  0
    4.3475    1.1648   -0.5345 H   0  0  0  0  0  0  0  0  0  0  0  0
    3.3702    0.1611   -1.6319 H   0  0  0  0  0  0  0  0  0  0  0  0
   -1.1535   -3.0214   -0.1967 C   0  0  0  0  0  0  0  0  0  0  0  0
   -1.4927   -3.7125    0.5718 H   0  0  0  0  0  0  0  0  0  0  0  0
   -0.3893   -3.3718   -0.8869 H   0  0  0  0  0  0  0  0  0  0  0  0
   -2.0404   -1.9296   -0.6267 C   0  0  1  0  0  0  0  0  0  0  0  0
   -1.8343   -1.5285   -1.6178 H   0  0  0  0  0  0  0  0  0  0  0  0
   -3.3938   -1.6675   -0.0750 C   0  0  0  0  0  0  0  0  0  0  0  0
   -3.6931   -1.8963    1.2764 C   0  0  0  0  0  0  0  0  0  0  0  0
   -4.9683   -1.6241    1.7676 C   0  0  0  0  0  0  0  0  0  0  0  0
   -5.9577   -1.1241    0.9144 C   0  0  0  0  0  0  0  0  0  0  0  0
   -5.6656   -0.8937   -0.4309 C   0  0  0  0  0  0  0  0  0  0  0  0
   -4.3858   -1.1585   -0.9233 C   0  0  0  0  0  0  0  0  0  0  0  0
   -2.9246   -2.2816    1.9413 H   0  0  0  0  0  0  0  0  0  0  0  0
   -5.1941   -1.8059    2.8144 H   0  0  0  0  0  0  0  0  0  0  0  0
   -6.9523   -0.9172    1.2985 H   0  0  0  0  0  0  0  0  0  0  0  0
   -6.4311   -0.5084   -1.0979 H   0  0  0  0  0  0  0  0  0  0  0  0
   -4.1578   -0.9791   -1.9715 H   0  0  0  0  0  0  0  0  0  0  0  0
  2 44  1  6  0  0  0
  2  1  9  0  0  0  0
  3 19  1  6  0  0  0
  3 13  1  0  0  0  0
  3  1  9  0  0  0  0
  4 12  2  0  0  0  0
  4  8  1  0  0  0  0
  4  1  9  0  0  0  0
  5 14  1  0  0  0  0
  5  1  9  0  0  0  0
  6 20  1  0  0  0  0
  6  1  9  0  0  0  0
  7  1  1  0  0  0  0
  8  9  2  0  0  0  0
  9 10  1  0  0  0  0
  9 27  1  0  0  0  0
 10 28  1  0  0  0  0
 11 29  1  0  0  0  0
 11 10  2  0  0  0  0
 12 11  1  0  0  0  0
 13 30  1  0  0  0  0
 13 12  1  0  0  0  0
 14 32  1  0  0  0  0
 15 33  1  0  0  0  0
 15 14  2  0  0  0  0
 16 15  1  0  0  0  0
 17 16  2  0  0  0  0
 17 18  1  0  0  0  0
 18  5  2  0  0  0  0
 19 18  1  0  0  0  0
 20 38  1  0  0  0  0
 20 21  2  0  0  0  0
 21 39  1  0  0  0  0
 22 40  1  0  0  0  0
 22 21  1  0  0  0  0
 23 22  2  0  0  0  0
 24  6  2  0  0  0  0
 24 23  1  0  0  0  0
 25 42  1  0  0  0  0
 25  3  1  0  0  0  0
 25 24  1  0  0  0  0
 26  8  1  0  0  0  0
 31 13  1  0  0  0  0
 34 16  1  0  0  0  0
 35 17  1  0  0  0  0
 36 19  1  0  0  0  0
 37 19  1  0  0  0  0
 41 23  1  0  0  0  0
 43 25  1  0  0  0  0
 44 45  1  0  0  0  0
 46 44  1  0  0  0  0
 47 48  1  6  0  0  0
 47 44  1  0  0  0  0
 47 49  1  0  0  0  0
 47  2  1  0  0  0  0
 49 50  2  0  0  0  0
 50 51  1  0  0  0  0
 50 55  1  0  0  0  0
 51 56  1  0  0  0  0
 52 57  1  0  0  0  0
 52 51  2  0  0  0  0
 53 52  1  0  0  0  0
 54 53  2  0  0  0  0
 54 49  1  0  0  0  0
 58 53  1  0  0  0  0
 59 54  1  0  0  0  0
M  CHG  1   1   1
M  END
$$$$
