
 OpenBabel02052520083D

 44 49  0  0  0  0  0  0  0  0999 V2000
    0.2349    0.5771   -0.6525 Fe  0  3  0  0  0  0  0  0  0  0  0  0
    0.1671   -1.6776   -0.8702 N   0  0  2  0  0  0  0  0  0  0  0  0
   -0.3151   -0.1851    1.4644 N   0  0  0  0  0  0  0  0  0  0  0  0
    2.2477   -0.0826   -0.1848 N   0  0  0  0  0  0  0  0  0  0  0  0
   -1.8946    0.1567   -0.8612 N   0  0  0  0  0  0  0  0  0  0  0  0
   -0.6917    0.6013    2.4876 C   0  0  0  0  0  0  0  0  0  0  0  0
   -1.3049    0.1004    3.6327 C   0  0  0  0  0  0  0  0  0  0  0  0
   -1.5526   -1.2700    3.7108 C   0  0  0  0  0  0  0  0  0  0  0  0
   -1.1627   -2.0865    2.6498 C   0  0  0  0  0  0  0  0  0  0  0  0
   -0.5358   -1.5086    1.5457 C   0  0  0  0  0  0  0  0  0  0  0  0
    0.0075   -2.3768    0.4282 C   0  0  0  0  0  0  0  0  0  0  0  0
    3.1605    0.6267    0.4961 C   0  0  0  0  0  0  0  0  0  0  0  0
    4.4577    0.1594    0.6921 C   0  0  0  0  0  0  0  0  0  0  0  0
    4.8056   -1.0847    0.1661 C   0  0  0  0  0  0  0  0  0  0  0  0
    3.8491   -1.8207   -0.5374 C   0  0  0  0  0  0  0  0  0  0  0  0
    2.5756   -1.2840   -0.7030 C   0  0  0  0  0  0  0  0  0  0  0  0
    1.4811   -1.9698   -1.4935 C   0  0  0  0  0  0  0  0  0  0  0  0
   -2.8888    0.9821   -0.5043 C   0  0  0  0  0  0  0  0  0  0  0  0
   -4.2271    0.6116   -0.6133 C   0  0  0  0  0  0  0  0  0  0  0  0
   -4.5291   -0.6608   -1.0982 C   0  0  0  0  0  0  0  0  0  0  0  0
   -3.4879   -1.5172   -1.4643 C   0  0  0  0  0  0  0  0  0  0  0  0
   -2.1751   -1.0711   -1.3402 C   0  0  0  0  0  0  0  0  0  0  0  0
   -0.9778   -1.8821   -1.7873 C   0  0  0  0  0  0  0  0  0  0  0  0
   -0.4965    1.6602    2.3601 H   0  0  0  0  0  0  0  0  0  0  0  0
   -1.5873    0.7744    4.4341 H   0  0  0  0  0  0  0  0  0  0  0  0
   -2.0418   -1.6971    4.5810 H   0  0  0  0  0  0  0  0  0  0  0  0
   -1.3361   -3.1581    2.6773 H   0  0  0  0  0  0  0  0  0  0  0  0
   -0.6161   -3.2712    0.3054 H   0  0  0  0  0  0  0  0  0  0  0  0
    0.9960   -2.7278    0.7443 H   0  0  0  0  0  0  0  0  0  0  0  0
    2.8237    1.5862    0.8742 H   0  0  0  0  0  0  0  0  0  0  0  0
    5.1717    0.7601    1.2448 H   0  0  0  0  0  0  0  0  0  0  0  0
    5.8067   -1.4816    0.3041 H   0  0  0  0  0  0  0  0  0  0  0  0
    4.0870   -2.7941   -0.9548 H   0  0  0  0  0  0  0  0  0  0  0  0
    1.4647   -1.5376   -2.4978 H   0  0  0  0  0  0  0  0  0  0  0  0
    1.6649   -3.0494   -1.5740 H   0  0  0  0  0  0  0  0  0  0  0  0
   -2.5817    1.9525   -0.1278 H   0  0  0  0  0  0  0  0  0  0  0  0
   -5.0071    1.3059   -0.3209 H   0  0  0  0  0  0  0  0  0  0  0  0
   -5.5610   -0.9858   -1.1894 H   0  0  0  0  0  0  0  0  0  0  0  0
   -3.6901   -2.5132   -1.8453 H   0  0  0  0  0  0  0  0  0  0  0  0
   -1.2329   -2.9457   -1.8848 H   0  0  0  0  0  0  0  0  0  0  0  0
   -0.6714   -1.5039   -2.7671 H   0  0  0  0  0  0  0  0  0  0  0  0
    0.5223    0.6509   -2.4622 O   0  0  0  0  0  0  0  0  0  0  0  0
    0.6241    1.5317   -2.8605 H   0  0  0  0  0  0  0  0  0  0  0  0
    0.2755    2.9460    0.0205 Br  0  0  0  0  0  0  0  0  0  0  0  0
  1 44  1  0  0  0  0
  2 23  1  6  0  0  0
  2 11  1  0  0  0  0
  2  1  9  0  0  0  0
  3 10  2  0  0  0  0
  3  6  1  0  0  0  0
  3  1  9  0  0  0  0
  4 12  1  0  0  0  0
  4  1  9  0  0  0  0
  5 18  1  0  0  0  0
  5  1  9  0  0  0  0
  6  7  2  0  0  0  0
  7  8  1  0  0  0  0
  7 25  1  0  0  0  0
  8 26  1  0  0  0  0
  9 27  1  0  0  0  0
  9  8  2  0  0  0  0
 10  9  1  0  0  0  0
 11 29  1  0  0  0  0
 11 10  1  0  0  0  0
 12 13  2  0  0  0  0
 12 30  1  0  0  0  0
 13 31  1  0  0  0  0
 14 32  1  0  0  0  0
 14 13  1  0  0  0  0
 15 14  2  0  0  0  0
 16 15  1  0  0  0  0
 16  4  2  0  0  0  0
 17  2  1  0  0  0  0
 17 16  1  0  0  0  0
 18 36  1  0  0  0  0
 19 18  2  0  0  0  0
 19 37  1  0  0  0  0
 20 19  1  0  0  0  0
 21 22  1  0  0  0  0
 21 20  2  0  0  0  0
 22  5  2  0  0  0  0
 23 22  1  0  0  0  0
 24  6  1  0  0  0  0
 28 11  1  0  0  0  0
 33 15  1  0  0  0  0
 34 17  1  0  0  0  0
 35 17  1  0  0  0  0
 38 20  1  0  0  0  0
 39 21  1  0  0  0  0
 40 23  1  0  0  0  0
 41 23  1  0  0  0  0
 42  1  1  0  0  0  0
 43 42  1  0  0  0  0
M  CHG  1   1   1
M  END
$$$$
