
 OpenBabel02052520083D

 59 66  0  0  0  0  0  0  0  0999 V2000
    0.6182   -0.4143   -0.6065 Fe  0  3  0  0  0  0  0  0  0  0  0  0
   -1.0194   -1.7250    0.0744 O   0  0  2  0  0  0  0  0  0  0  0  0
    2.2460    1.1230   -0.8116 N   0  0  2  0  0  0  0  0  0  0  0  0
    0.6881    0.5120    1.4428 N   0  0  0  0  0  0  0  0  0  0  0  0
   -0.5602    1.5196   -0.9226 N   0  0  0  0  0  0  0  0  0  0  0  0
    2.4749   -1.5374   -0.0753 N   0  0  0  0  0  0  0  0  0  0  0  0
    0.4489   -1.0503   -2.3036 F   0  0  0  0  0  0  0  0  0  0  0  0
   -0.2422    0.3044    2.3882 C   0  0  0  0  0  0  0  0  0  0  0  0
   -0.3673    1.1228    3.5069 C   0  0  0  0  0  0  0  0  0  0  0  0
    0.5021    2.2074    3.6347 C   0  0  0  0  0  0  0  0  0  0  0  0
    1.4614    2.4279    2.6468 C   0  0  0  0  0  0  0  0  0  0  0  0
    1.5301    1.5527    1.5619 C   0  0  0  0  0  0  0  0  0  0  0  0
    2.6078    1.7050    0.4984 C   0  0  0  0  0  0  0  0  0  0  0  0
   -1.8233    1.8076   -0.5845 C   0  0  0  0  0  0  0  0  0  0  0  0
   -2.3417    3.1008   -0.6427 C   0  0  0  0  0  0  0  0  0  0  0  0
   -1.5013    4.1332   -1.0566 C   0  0  0  0  0  0  0  0  0  0  0  0
   -0.1805    3.8360   -1.4002 C   0  0  0  0  0  0  0  0  0  0  0  0
    0.2542    2.5136   -1.3278 C   0  0  0  0  0  0  0  0  0  0  0  0
    1.6534    2.0975   -1.7501 C   0  0  0  0  0  0  0  0  0  0  0  0
    2.6063   -2.6741    0.6199 C   0  0  0  0  0  0  0  0  0  0  0  0
    3.8403   -3.2835    0.8383 C   0  0  0  0  0  0  0  0  0  0  0  0
    4.9804   -2.6723    0.3165 C   0  0  0  0  0  0  0  0  0  0  0  0
    4.8465   -1.4818   -0.4009 C   0  0  0  0  0  0  0  0  0  0  0  0
    3.5728   -0.9458   -0.5856 C   0  0  0  0  0  0  0  0  0  0  0  0
    3.3305    0.3115   -1.4047 C   0  0  0  0  0  0  0  0  0  0  0  0
   -0.9041   -0.5374    2.2108 H   0  0  0  0  0  0  0  0  0  0  0  0
   -1.1316    0.9197    4.2494 H   0  0  0  0  0  0  0  0  0  0  0  0
    0.4303    2.8765    4.4871 H   0  0  0  0  0  0  0  0  0  0  0  0
    2.1472    3.2672    2.7135 H   0  0  0  0  0  0  0  0  0  0  0  0
    3.5016    1.1867    0.8639 H   0  0  0  0  0  0  0  0  0  0  0  0
    2.8819    2.7635    0.3935 H   0  0  0  0  0  0  0  0  0  0  0  0
   -2.4322    0.9706   -0.2560 H   0  0  0  0  0  0  0  0  0  0  0  0
   -3.3737    3.2864   -0.3646 H   0  0  0  0  0  0  0  0  0  0  0  0
   -1.8639    5.1555   -1.1082 H   0  0  0  0  0  0  0  0  0  0  0  0
    0.5009    4.6170   -1.7234 H   0  0  0  0  0  0  0  0  0  0  0  0
    1.5697    1.5935   -2.7191 H   0  0  0  0  0  0  0  0  0  0  0  0
    2.2949    2.9816   -1.8795 H   0  0  0  0  0  0  0  0  0  0  0  0
    1.6839   -3.0969    1.0080 H   0  0  0  0  0  0  0  0  0  0  0  0
    3.9022   -4.2067    1.4045 H   0  0  0  0  0  0  0  0  0  0  0  0
    5.9617   -3.1114    0.4696 H   0  0  0  0  0  0  0  0  0  0  0  0
    5.7150   -0.9785   -0.8144 H   0  0  0  0  0  0  0  0  0  0  0  0
    4.2633    0.8816   -1.5233 H   0  0  0  0  0  0  0  0  0  0  0  0
    2.9877    0.0031   -2.3984 H   0  0  0  0  0  0  0  0  0  0  0  0
   -1.2686   -2.9601   -0.6500 C   0  0  0  0  0  0  0  0  0  0  0  0
   -1.6540   -3.7628   -0.0252 H   0  0  0  0  0  0  0  0  0  0  0  0
   -0.4912   -3.2048   -1.3697 H   0  0  0  0  0  0  0  0  0  0  0  0
   -2.1081   -1.7826   -0.9202 C   0  0  1  0  0  0  0  0  0  0  0  0
   -1.8503   -1.2376   -1.8259 H   0  0  0  0  0  0  0  0  0  0  0  0
   -3.4771   -1.5788   -0.3831 C   0  0  0  0  0  0  0  0  0  0  0  0
   -3.8238   -1.9800    0.9152 C   0  0  0  0  0  0  0  0  0  0  0  0
   -5.1160   -1.7695    1.3923 C   0  0  0  0  0  0  0  0  0  0  0  0
   -6.0746   -1.1574    0.5781 C   0  0  0  0  0  0  0  0  0  0  0  0
   -5.7337   -0.7508   -0.7131 C   0  0  0  0  0  0  0  0  0  0  0  0
   -4.4373   -0.9544   -1.1899 C   0  0  0  0  0  0  0  0  0  0  0  0
   -3.0759   -2.4463    1.5508 H   0  0  0  0  0  0  0  0  0  0  0  0
   -5.3783   -2.0839    2.3985 H   0  0  0  0  0  0  0  0  0  0  0  0
   -7.0822   -0.9980    0.9507 H   0  0  0  0  0  0  0  0  0  0  0  0
   -6.4739   -0.2742   -1.3491 H   0  0  0  0  0  0  0  0  0  0  0  0
   -4.1701   -0.6352   -2.1947 H   0  0  0  0  0  0  0  0  0  0  0  0
  2 44  1  6  0  0  0
  2  1  9  0  0  0  0
  3 19  1  6  0  0  0
  3 13  1  0  0  0  0
  3  1  9  0  0  0  0
  4 12  2  0  0  0  0
  4  8  1  0  0  0  0
  4  1  9  0  0  0  0
  5 14  1  0  0  0  0
  5  1  9  0  0  0  0
  6 20  1  0  0  0  0
  6  1  9  0  0  0  0
  7  1  1  0  0  0  0
  8  9  2  0  0  0  0
  9 10  1  0  0  0  0
  9 27  1  0  0  0  0
 10 28  1  0  0  0  0
 11 29  1  0  0  0  0
 11 10  2  0  0  0  0
 12 11  1  0  0  0  0
 13 30  1  0  0  0  0
 13 12  1  0  0  0  0
 14 32  1  0  0  0  0
 15 14  2  0  0  0  0
 15 33  1  0  0  0  0
 16 15  1  0  0  0  0
 17 18  1  0  0  0  0
 17 16  2  0  0  0  0
 18  5  2  0  0  0  0
 19 18  1  0  0  0  0
 20 21  2  0  0  0  0
 20 38  1  0  0  0  0
 21 39  1  0  0  0  0
 22 40  1  0  0  0  0
 22 21  1  0  0  0  0
 23 22  2  0  0  0  0
 24 23  1  0  0  0  0
 24  6  2  0  0  0  0
 25  3  1  0  0  0  0
 25 24  1  0  0  0  0
 26  8  1  0  0  0  0
 31 13  1  0  0  0  0
 34 16  1  0  0  0  0
 35 17  1  0  0  0  0
 36 19  1  0  0  0  0
 37 19  1  0  0  0  0
 41 23  1  0  0  0  0
 42 25  1  0  0  0  0
 43 25  1  0  0  0  0
 44 45  1  0  0  0  0
 46 44  1  0  0  0  0
 47 48  1  6  0  0  0
 47 44  1  0  0  0  0
 47 49  1  0  0  0  0
 47  2  1  0  0  0  0
 49 50  2  0  0  0  0
 50 51  1  0  0  0  0
 50 55  1  0  0  0  0
 51 56  1  0  0  0  0
 52 57  1  0  0  0  0
 52 51  2  0  0  0  0
 53 52  1  0  0  0  0
 54 53  2  0  0  0  0
 54 49  1  0  0  0  0
 58 53  1  0  0  0  0
 59 54  1  0  0  0  0
M  CHG  1   1   1
M  END
$$$$
