
 OpenBabel02052520083D

 46 51  0  0  0  0  0  0  0  0999 V2000
    0.2412    0.3327   -0.8666 Fe  0  3  0  0  0  0  0  0  0  0  0  0
    0.4337   -1.9054   -0.4381 N   0  0  2  0  0  0  0  0  0  0  0  0
   -0.2597    0.0988    1.3954 N   0  0  0  0  0  0  0  0  0  0  0  0
    2.3018    0.0497   -0.2517 N   0  0  0  0  0  0  0  0  0  0  0  0
   -1.8194   -0.3912   -0.9200 N   0  0  0  0  0  0  0  0  0  0  0  0
   -0.7493    1.0939    2.1528 C   0  0  0  0  0  0  0  0  0  0  0  0
   -1.3433    0.8706    3.3918 C   0  0  0  0  0  0  0  0  0  0  0  0
   -1.4466   -0.4428    3.8518 C   0  0  0  0  0  0  0  0  0  0  0  0
   -0.9399   -1.4764    3.0644 C   0  0  0  0  0  0  0  0  0  0  0  0
   -0.3430   -1.1642    1.8424 C   0  0  0  0  0  0  0  0  0  0  0  0
    0.3215   -2.2383    1.0036 C   0  0  0  0  0  0  0  0  0  0  0  0
    3.1067    1.0245    0.1943 C   0  0  0  0  0  0  0  0  0  0  0  0
    4.4431    0.7899    0.5076 C   0  0  0  0  0  0  0  0  0  0  0  0
    4.9449   -0.5030    0.3543 C   0  0  0  0  0  0  0  0  0  0  0  0
    4.0993   -1.5155   -0.1053 C   0  0  0  0  0  0  0  0  0  0  0  0
    2.7773   -1.2015   -0.4093 C   0  0  0  0  0  0  0  0  0  0  0  0
    1.7873   -2.2045   -0.9654 C   0  0  0  0  0  0  0  0  0  0  0  0
   -2.9057    0.3818   -0.7897 C   0  0  0  0  0  0  0  0  0  0  0  0
   -4.1921   -0.1517   -0.7746 C   0  0  0  0  0  0  0  0  0  0  0  0
   -4.3393   -1.5345   -0.8874 C   0  0  0  0  0  0  0  0  0  0  0  0
   -3.2019   -2.3350   -1.0166 C   0  0  0  0  0  0  0  0  0  0  0  0
   -1.9497   -1.7263   -1.0373 C   0  0  0  0  0  0  0  0  0  0  0  0
   -0.6578   -2.4859   -1.2533 C   0  0  0  0  0  0  0  0  0  0  0  0
   -0.6627    2.0904    1.7346 H   0  0  0  0  0  0  0  0  0  0  0  0
   -1.7215    1.7058    3.9714 H   0  0  0  0  0  0  0  0  0  0  0  0
   -1.9156   -0.6602    4.8067 H   0  0  0  0  0  0  0  0  0  0  0  0
   -1.0017   -2.5097    3.3925 H   0  0  0  0  0  0  0  0  0  0  0  0
   -0.1948   -3.1975    1.1361 H   0  0  0  0  0  0  0  0  0  0  0  0
    1.3349   -2.3740    1.3976 H   0  0  0  0  0  0  0  0  0  0  0  0
    2.6495    2.0041    0.2902 H   0  0  0  0  0  0  0  0  0  0  0  0
    5.0685    1.6013    0.8636 H   0  0  0  0  0  0  0  0  0  0  0  0
    5.9806   -0.7238    0.5939 H   0  0  0  0  0  0  0  0  0  0  0  0
    4.4592   -2.5320   -0.2294 H   0  0  0  0  0  0  0  0  0  0  0  0
    1.7463   -2.0732   -2.0501 H   0  0  0  0  0  0  0  0  0  0  0  0
    2.0978   -3.2341   -0.7427 H   0  0  0  0  0  0  0  0  0  0  0  0
   -2.7175    1.4465   -0.6945 H   0  0  0  0  0  0  0  0  0  0  0  0
   -5.0510    0.5027   -0.6728 H   0  0  0  0  0  0  0  0  0  0  0  0
   -5.3263   -1.9867   -0.8720 H   0  0  0  0  0  0  0  0  0  0  0  0
   -3.2840   -3.4138   -1.1045 H   0  0  0  0  0  0  0  0  0  0  0  0
   -0.7903   -3.5575   -1.0519 H   0  0  0  0  0  0  0  0  0  0  0  0
   -0.3735   -2.3580   -2.3019 H   0  0  0  0  0  0  0  0  0  0  0  0
    0.5620   -0.0935   -2.6286 O   0  0  0  0  0  0  0  0  0  0  0  0
    0.5593    0.6274   -3.2791 H   0  0  0  0  0  0  0  0  0  0  0  0
   -0.0005    2.2342   -0.7485 N   0  0  0  0  0  0  0  0  0  0  0  0
   -0.2902    3.3909   -0.6003 C   0  0  0  0  0  0  0  0  0  0  0  0
   -0.6840    4.9192   -0.3769 S   0  0  0  0  0  0  0  0  0  0  0  0
  1 44  1  0  0  0  0
  2 23  1  6  0  0  0
  2 11  1  0  0  0  0
  2  1  9  0  0  0  0
  3 10  2  0  0  0  0
  3  6  1  0  0  0  0
  3  1  9  0  0  0  0
  4 12  1  0  0  0  0
  4  1  9  0  0  0  0
  5 18  1  0  0  0  0
  5  1  9  0  0  0  0
  6  7  2  0  0  0  0
  7  8  1  0  0  0  0
  7 25  1  0  0  0  0
  8 26  1  0  0  0  0
  9 27  1  0  0  0  0
  9  8  2  0  0  0  0
 10  9  1  0  0  0  0
 11 28  1  0  0  0  0
 11 29  1  0  0  0  0
 11 10  1  0  0  0  0
 12 30  1  0  0  0  0
 12 13  2  0  0  0  0
 13 31  1  0  0  0  0
 14 13  1  0  0  0  0
 14 32  1  0  0  0  0
 15 14  2  0  0  0  0
 16  4  2  0  0  0  0
 16 15  1  0  0  0  0
 17 35  1  0  0  0  0
 17  2  1  0  0  0  0
 17 16  1  0  0  0  0
 18 19  2  0  0  0  0
 18 36  1  0  0  0  0
 19 37  1  0  0  0  0
 20 38  1  0  0  0  0
 20 19  1  0  0  0  0
 21 20  2  0  0  0  0
 22 21  1  0  0  0  0
 22  5  2  0  0  0  0
 23 40  1  0  0  0  0
 23 22  1  0  0  0  0
 24  6  1  0  0  0  0
 33 15  1  0  0  0  0
 34 17  1  0  0  0  0
 39 21  1  0  0  0  0
 41 23  1  0  0  0  0
 42  1  1  0  0  0  0
 43 42  1  0  0  0  0
 44 45  2  0  0  0  0
 45 46  2  0  0  0  0
M  CHG  1   1   1
M  END
$$$$
