
 OpenBabel02052520083D

 44 49  0  0  0  0  0  0  0  0999 V2000
   -0.0020   -0.6908    1.0252 Fe  0  3  0  0  0  0  0  0  0  0  0  0
   -0.0020   -0.9255   -1.2909 N   0  0  2  0  0  0  0  0  0  0  0  0
    0.0021    1.4164    0.1938 N   0  0  0  0  0  0  0  0  0  0  0  0
   -2.0887   -0.5627    0.4528 N   0  0  0  0  0  0  0  0  0  0  0  0
    2.0855   -0.5683    0.4536 N   0  0  0  0  0  0  0  0  0  0  0  0
    0.0052    2.4796    1.0172 C   0  0  0  0  0  0  0  0  0  0  0  0
    0.0103    3.7845    0.5383 C   0  0  0  0  0  0  0  0  0  0  0  0
    0.0122    3.9846   -0.8448 C   0  0  0  0  0  0  0  0  0  0  0  0
    0.0090    2.8782   -1.6917 C   0  0  0  0  0  0  0  0  0  0  0  0
    0.0039    1.5985   -1.1309 C   0  0  0  0  0  0  0  0  0  0  0  0
   -0.0008    0.3656   -2.0215 C   0  0  0  0  0  0  0  0  0  0  0  0
   -3.0368   -0.0146    1.2240 C   0  0  0  0  0  0  0  0  0  0  0  0
   -4.3636    0.0652    0.8081 C   0  0  0  0  0  0  0  0  0  0  0  0
   -4.6954   -0.4344   -0.4519 C   0  0  0  0  0  0  0  0  0  0  0  0
   -3.6981   -0.9988   -1.2516 C   0  0  0  0  0  0  0  0  0  0  0  0
   -2.3958   -1.0555   -0.7619 C   0  0  0  0  0  0  0  0  0  0  0  0
   -1.2443   -1.7035   -1.5038 C   0  0  0  0  0  0  0  0  0  0  0  0
    3.0348   -0.0228    1.2252 C   0  0  0  0  0  0  0  0  0  0  0  0
    4.3618    0.0542    0.8094 C   0  0  0  0  0  0  0  0  0  0  0  0
    4.6925   -0.4454   -0.4509 C   0  0  0  0  0  0  0  0  0  0  0  0
    3.6939   -1.0069   -1.2510 C   0  0  0  0  0  0  0  0  0  0  0  0
    2.3916   -1.0610   -0.7614 C   0  0  0  0  0  0  0  0  0  0  0  0
    1.2386   -1.7061   -1.5036 C   0  0  0  0  0  0  0  0  0  0  0  0
    0.0037    2.2355    2.0741 H   0  0  0  0  0  0  0  0  0  0  0  0
    0.0127    4.6197    1.2303 H   0  0  0  0  0  0  0  0  0  0  0  0
    0.0163    4.9891   -1.2574 H   0  0  0  0  0  0  0  0  0  0  0  0
    0.0105    3.0009   -2.7710 H   0  0  0  0  0  0  0  0  0  0  0  0
    0.8736    0.4094   -2.6819 H   0  0  0  0  0  0  0  0  0  0  0  0
   -0.8783    0.4132   -2.6774 H   0  0  0  0  0  0  0  0  0  0  0  0
   -2.6972    0.3584    2.1856 H   0  0  0  0  0  0  0  0  0  0  0  0
   -5.1115    0.5104    1.4551 H   0  0  0  0  0  0  0  0  0  0  0  0
   -5.7184   -0.3827   -0.8120 H   0  0  0  0  0  0  0  0  0  0  0  0
   -3.9269   -1.3926   -2.2369 H   0  0  0  0  0  0  0  0  0  0  0  0
   -1.0820   -2.6919   -1.0637 H   0  0  0  0  0  0  0  0  0  0  0  0
   -1.4783   -1.8250   -2.5701 H   0  0  0  0  0  0  0  0  0  0  0  0
    2.6961    0.3505    2.1870 H   0  0  0  0  0  0  0  0  0  0  0  0
    5.1107    0.4973    1.4567 H   0  0  0  0  0  0  0  0  0  0  0  0
    5.7157   -0.3958   -0.8109 H   0  0  0  0  0  0  0  0  0  0  0  0
    3.9219   -1.4006   -2.2365 H   0  0  0  0  0  0  0  0  0  0  0  0
    1.4726   -1.8278   -2.5699 H   0  0  0  0  0  0  0  0  0  0  0  0
    1.0741   -2.6943   -1.0639 H   0  0  0  0  0  0  0  0  0  0  0  0
   -0.0043   -2.5320    1.1153 O   0  0  0  0  0  0  0  0  0  0  0  0
   -0.0054   -2.9432    1.9950 H   0  0  0  0  0  0  0  0  0  0  0  0
   -0.0019    0.0333    2.6599 F   0  0  0  0  0  0  0  0  0  0  0  0
  1 42  1  0  0  0  0
  1 44  1  0  0  0  0
  2 11  1  6  0  0  0
  2  1  9  0  0  0  0
  3  6  1  0  0  0  0
  3  1  9  0  0  0  0
  4 12  1  0  0  0  0
  4  1  9  0  0  0  0
  5 18  1  0  0  0  0
  5  1  9  0  0  0  0
  6 24  1  0  0  0  0
  7  6  2  0  0  0  0
  7 25  1  0  0  0  0
  8  7  1  0  0  0  0
  9 10  1  0  0  0  0
  9  8  2  0  0  0  0
 10  3  2  0  0  0  0
 11 10  1  0  0  0  0
 12 30  1  0  0  0  0
 13 12  2  0  0  0  0
 13 31  1  0  0  0  0
 14 13  1  0  0  0  0
 15 16  1  0  0  0  0
 15 14  2  0  0  0  0
 16  4  2  0  0  0  0
 17  2  1  0  0  0  0
 17 34  1  0  0  0  0
 17 16  1  0  0  0  0
 18 36  1  0  0  0  0
 19 18  2  0  0  0  0
 19 37  1  0  0  0  0
 20 19  1  0  0  0  0
 21 22  1  0  0  0  0
 21 20  2  0  0  0  0
 22  5  2  0  0  0  0
 23  2  1  0  0  0  0
 23 41  1  0  0  0  0
 23 22  1  0  0  0  0
 26  8  1  0  0  0  0
 27  9  1  0  0  0  0
 28 11  1  0  0  0  0
 29 11  1  0  0  0  0
 32 14  1  0  0  0  0
 33 15  1  0  0  0  0
 35 17  1  0  0  0  0
 38 20  1  0  0  0  0
 39 21  1  0  0  0  0
 40 23  1  0  0  0  0
 42 43  1  0  0  0  0
M  CHG  1   1   1
M  END
$$$$
