
 OpenBabel02052520083D

 46 51  0  0  0  0  0  0  0  0999 V2000
   -0.0062    0.4423   -0.4875 Fe  0  3  0  0  0  0  0  0  0  0  0  0
   -0.0016   -0.2210    1.5805 N   0  0  2  0  0  0  0  0  0  0  0  0
    0.0198   -1.5621   -0.8524 N   0  0  0  0  0  0  0  0  0  0  0  0
   -2.1827    0.1455   -0.0059 N   0  0  0  0  0  0  0  0  0  0  0  0
    2.1753    0.1946   -0.0016 N   0  0  0  0  0  0  0  0  0  0  0  0
    0.0319   -2.0879   -2.0897 C   0  0  0  0  0  0  0  0  0  0  0  0
    0.0543   -3.4615   -2.2990 C   0  0  0  0  0  0  0  0  0  0  0  0
    0.0649   -4.3064   -1.1868 C   0  0  0  0  0  0  0  0  0  0  0  0
    0.0524   -3.7512    0.0921 C   0  0  0  0  0  0  0  0  0  0  0  0
    0.0295   -2.3634    0.2282 C   0  0  0  0  0  0  0  0  0  0  0  0
    0.0127   -1.7176    1.6001 C   0  0  0  0  0  0  0  0  0  0  0  0
   -3.1810    0.0149   -0.8884 C   0  0  0  0  0  0  0  0  0  0  0  0
   -4.4984   -0.1907   -0.4831 C   0  0  0  0  0  0  0  0  0  0  0  0
   -4.7691   -0.2710    0.8838 C   0  0  0  0  0  0  0  0  0  0  0  0
   -3.7220   -0.1378    1.7992 C   0  0  0  0  0  0  0  0  0  0  0  0
   -2.4357    0.0809    1.3118 C   0  0  0  0  0  0  0  0  0  0  0  0
   -1.2364    0.3327    2.1988 C   0  0  0  0  0  0  0  0  0  0  0  0
    3.1778    0.0863   -0.8823 C   0  0  0  0  0  0  0  0  0  0  0  0
    4.4981   -0.0945   -0.4747 C   0  0  0  0  0  0  0  0  0  0  0  0
    4.7674   -0.1737    0.8925 C   0  0  0  0  0  0  0  0  0  0  0  0
    3.7159   -0.0640    1.8061 C   0  0  0  0  0  0  0  0  0  0  0  0
    2.4266    0.1308    1.3165 C   0  0  0  0  0  0  0  0  0  0  0  0
    1.2207    0.3568    2.2015 C   0  0  0  0  0  0  0  0  0  0  0  0
    0.0230   -1.3561   -2.8909 H   0  0  0  0  0  0  0  0  0  0  0  0
    0.0634   -3.8559   -3.3091 H   0  0  0  0  0  0  0  0  0  0  0  0
    0.0827   -5.3847   -1.3130 H   0  0  0  0  0  0  0  0  0  0  0  0
    0.0602   -4.3833    0.9749 H   0  0  0  0  0  0  0  0  0  0  0  0
    0.8881   -2.0625    2.1617 H   0  0  0  0  0  0  0  0  0  0  0  0
   -0.8659   -2.0785    2.1464 H   0  0  0  0  0  0  0  0  0  0  0  0
   -2.8937    0.0830   -1.9333 H   0  0  0  0  0  0  0  0  0  0  0  0
   -5.2874   -0.2869   -1.2211 H   0  0  0  0  0  0  0  0  0  0  0  0
   -5.7829   -0.4369    1.2352 H   0  0  0  0  0  0  0  0  0  0  0  0
   -3.9015   -0.1941    2.8684 H   0  0  0  0  0  0  0  0  0  0  0  0
   -1.0929    1.4150    2.2720 H   0  0  0  0  0  0  0  0  0  0  0  0
   -1.3899   -0.0676    3.2095 H   0  0  0  0  0  0  0  0  0  0  0  0
    2.8913    0.1520   -1.9276 H   0  0  0  0  0  0  0  0  0  0  0  0
    5.2905   -0.1728   -1.2113 H   0  0  0  0  0  0  0  0  0  0  0  0
    5.7835   -0.3206    1.2457 H   0  0  0  0  0  0  0  0  0  0  0  0
    3.8942   -0.1201    2.8754 H   0  0  0  0  0  0  0  0  0  0  0  0
    1.3803   -0.0415    3.2119 H   0  0  0  0  0  0  0  0  0  0  0  0
    1.0552    1.4360    2.2756 H   0  0  0  0  0  0  0  0  0  0  0  0
   -0.0069    0.7607   -2.2538 O   0  0  0  0  0  0  0  0  0  0  0  0
   -0.0183    1.7134   -2.4554 H   0  0  0  0  0  0  0  0  0  0  0  0
   -0.0279    2.2734    0.0226 N   0  0  0  0  0  0  0  0  0  0  0  0
   -0.0391    3.3820   -0.4476 C   0  0  0  0  0  0  0  0  0  0  0  0
   -0.0542    4.8734   -1.0116 S   0  0  0  0  0  0  0  0  0  0  0  0
  1 44  1  0  0  0  0
  2 11  1  1  0  0  0
  2 17  1  0  0  0  0
  2 23  1  0  0  0  0
  2  1  9  0  0  0  0
  3 10  1  0  0  0  0
  3  1  9  0  0  0  0
  4 16  1  0  0  0  0
  4  1  9  0  0  0  0
  5 22  1  0  0  0  0
  5  1  9  0  0  0  0
  6  3  2  0  0  0  0
  7  6  1  0  0  0  0
  7  8  2  0  0  0  0
  8  9  1  0  0  0  0
  9 10  2  0  0  0  0
  9 27  1  0  0  0  0
 10 11  1  0  0  0  0
 11 29  1  0  0  0  0
 11 28  1  0  0  0  0
 12 13  1  0  0  0  0
 12  4  2  0  0  0  0
 13 14  2  0  0  0  0
 14 32  1  0  0  0  0
 14 15  1  0  0  0  0
 15 33  1  0  0  0  0
 16 15  2  0  0  0  0
 16 17  1  0  0  0  0
 17 34  1  0  0  0  0
 17 35  1  0  0  0  0
 18 19  1  0  0  0  0
 18  5  2  0  0  0  0
 19 20  2  0  0  0  0
 20 38  1  0  0  0  0
 20 21  1  0  0  0  0
 21 39  1  0  0  0  0
 22 21  2  0  0  0  0
 22 23  1  0  0  0  0
 23 41  1  0  0  0  0
 23 40  1  0  0  0  0
 24  6  1  0  0  0  0
 25  7  1  0  0  0  0
 26  8  1  0  0  0  0
 30 12  1  0  0  0  0
 31 13  1  0  0  0  0
 36 18  1  0  0  0  0
 37 19  1  0  0  0  0
 42  1  1  0  0  0  0
 43 42  1  0  0  0  0
 45 44  2  0  0  0  0
 46 45  2  0  0  0  0
M  CHG  1   1   1
M  END
$$$$
