
 OpenBabel02052520083D

 44 49  0  0  0  0  0  0  0  0999 V2000
   -0.0020   -0.7352    0.8373 Fe  0  3  0  0  0  0  0  0  0  0  0  0
   -0.0020   -0.8617   -1.4456 N   0  0  2  0  0  0  0  0  0  0  0  0
    0.0025    1.4482    0.1381 N   0  0  0  0  0  0  0  0  0  0  0  0
   -2.0936   -0.5645    0.2910 N   0  0  0  0  0  0  0  0  0  0  0  0
    2.0904   -0.5705    0.2919 N   0  0  0  0  0  0  0  0  0  0  0  0
    0.0057    2.5057    0.9716 C   0  0  0  0  0  0  0  0  0  0  0  0
    0.0107    3.8182    0.5140 C   0  0  0  0  0  0  0  0  0  0  0  0
    0.0126    4.0438   -0.8640 C   0  0  0  0  0  0  0  0  0  0  0  0
    0.0093    2.9493   -1.7248 C   0  0  0  0  0  0  0  0  0  0  0  0
    0.0041    1.6603   -1.1853 C   0  0  0  0  0  0  0  0  0  0  0  0
   -0.0007    0.4612   -2.1182 C   0  0  0  0  0  0  0  0  0  0  0  0
   -3.0508   -0.0538    1.0782 C   0  0  0  0  0  0  0  0  0  0  0  0
   -4.3763    0.0323    0.6591 C   0  0  0  0  0  0  0  0  0  0  0  0
   -4.7017   -0.4205   -0.6197 C   0  0  0  0  0  0  0  0  0  0  0  0
   -3.6974   -0.9478   -1.4354 C   0  0  0  0  0  0  0  0  0  0  0  0
   -2.3971   -1.0138   -0.9429 C   0  0  0  0  0  0  0  0  0  0  0  0
   -1.2433   -1.6292   -1.7055 C   0  0  0  0  0  0  0  0  0  0  0  0
    3.0487   -0.0627    1.0795 C   0  0  0  0  0  0  0  0  0  0  0  0
    4.3744    0.0207    0.6605 C   0  0  0  0  0  0  0  0  0  0  0  0
    4.6988   -0.4318   -0.6186 C   0  0  0  0  0  0  0  0  0  0  0  0
    3.6933   -0.9561   -1.4348 C   0  0  0  0  0  0  0  0  0  0  0  0
    2.3928   -1.0195   -0.9424 C   0  0  0  0  0  0  0  0  0  0  0  0
    1.2377   -1.6319   -1.7054 C   0  0  0  0  0  0  0  0  0  0  0  0
    0.0043    2.2645    2.0286 H   0  0  0  0  0  0  0  0  0  0  0  0
    0.0132    4.6393    1.2227 H   0  0  0  0  0  0  0  0  0  0  0  0
    0.0166    5.0544   -1.2610 H   0  0  0  0  0  0  0  0  0  0  0  0
    0.0106    3.0864   -2.8024 H   0  0  0  0  0  0  0  0  0  0  0  0
    0.8734    0.5308   -2.7763 H   0  0  0  0  0  0  0  0  0  0  0  0
   -0.8782    0.5346   -2.7713 H   0  0  0  0  0  0  0  0  0  0  0  0
   -2.7233    0.2810    2.0572 H   0  0  0  0  0  0  0  0  0  0  0  0
   -5.1287    0.4465    1.3212 H   0  0  0  0  0  0  0  0  0  0  0  0
   -5.7238   -0.3624   -0.9812 H   0  0  0  0  0  0  0  0  0  0  0  0
   -3.9192   -1.3070   -2.4354 H   0  0  0  0  0  0  0  0  0  0  0  0
   -1.0843   -2.6382   -1.3143 H   0  0  0  0  0  0  0  0  0  0  0  0
   -1.4653   -1.6963   -2.7788 H   0  0  0  0  0  0  0  0  0  0  0  0
    2.7219    0.2722    2.0587 H   0  0  0  0  0  0  0  0  0  0  0  0
    5.1278    0.4326    1.3230 H   0  0  0  0  0  0  0  0  0  0  0  0
    5.7211   -0.3758   -0.9801 H   0  0  0  0  0  0  0  0  0  0  0  0
    3.9143   -1.3150   -2.4350 H   0  0  0  0  0  0  0  0  0  0  0  0
    1.4598   -1.6991   -2.7787 H   0  0  0  0  0  0  0  0  0  0  0  0
    1.0763   -2.6406   -1.3146 H   0  0  0  0  0  0  0  0  0  0  0  0
   -0.0046   -2.5724    0.8283 O   0  0  0  0  0  0  0  0  0  0  0  0
   -0.0054   -3.0088    1.6966 H   0  0  0  0  0  0  0  0  0  0  0  0
   -0.0017   -0.1712    3.0354 Cl  0  0  0  0  0  0  0  0  0  0  0  0
  1 44  1  0  0  0  0
  2 11  1  6  0  0  0
  2  1  9  0  0  0  0
  3  6  1  0  0  0  0
  3  1  9  0  0  0  0
  4 12  1  0  0  0  0
  4  1  9  0  0  0  0
  5 18  1  0  0  0  0
  5  1  9  0  0  0  0
  6 24  1  0  0  0  0
  7  6  2  0  0  0  0
  7 25  1  0  0  0  0
  8  7  1  0  0  0  0
  9 10  1  0  0  0  0
  9  8  2  0  0  0  0
 10  3  2  0  0  0  0
 11 10  1  0  0  0  0
 12 30  1  0  0  0  0
 13 12  2  0  0  0  0
 13 31  1  0  0  0  0
 14 13  1  0  0  0  0
 15 16  1  0  0  0  0
 15 14  2  0  0  0  0
 16  4  2  0  0  0  0
 17  2  1  0  0  0  0
 17 34  1  0  0  0  0
 17 16  1  0  0  0  0
 18 36  1  0  0  0  0
 19 18  2  0  0  0  0
 19 37  1  0  0  0  0
 20 19  1  0  0  0  0
 21 22  1  0  0  0  0
 21 20  2  0  0  0  0
 22  5  2  0  0  0  0
 23  2  1  0  0  0  0
 23 41  1  0  0  0  0
 23 22  1  0  0  0  0
 26  8  1  0  0  0  0
 27  9  1  0  0  0  0
 28 11  1  0  0  0  0
 29 11  1  0  0  0  0
 32 14  1  0  0  0  0
 33 15  1  0  0  0  0
 35 17  1  0  0  0  0
 38 20  1  0  0  0  0
 39 21  1  0  0  0  0
 40 23  1  0  0  0  0
 42  1  1  0  0  0  0
 42 43  1  0  0  0  0
M  CHG  1   1   1
M  END
$$$$
