
 OpenBabel02052520083D

 56 59  0  0  0  0  0  0  0  0999 V2000
    0.0070    0.0109   -0.1000 Fe  0  3  0  0  0  0  0  0  0  0  0  0
   -0.1308    0.0985   -1.9796 O   0  0  0  0  0  0  0  0  0  0  0  0
    0.2849   -0.0301    1.8195 N   0  0  0  0  0  0  0  0  0  0  0  0
    0.7348   -0.0466    2.9406 C   0  0  0  0  0  0  0  0  0  0  0  0
    1.1744   -0.0616    4.0418 O   0  0  0  0  0  0  0  0  0  0  0  0
    1.4099   -1.7043   -0.4496 N   0  0  1  0  0  0  0  0  0  0  0  0
   -1.5381   -1.6596    0.0203 N   0  0  2  0  0  0  0  0  0  0  0  0
   -1.5651    1.6342    0.0589 N   0  0  2  0  0  0  0  0  0  0  0  0
    1.3754    1.7367   -0.4193 N   0  0  2  0  0  0  0  0  0  0  0  0
    0.5059   -2.6802   -1.1171 C   0  0  0  0  0  0  0  0  0  0  0  0
   -0.7888   -2.9115   -0.3349 C   0  0  0  0  0  0  0  0  0  0  0  0
   -2.5976   -1.3525   -0.9852 C   0  0  0  0  0  0  0  0  0  0  0  0
   -3.3445   -0.0173   -0.8027 C   0  0  0  0  0  0  0  0  0  0  0  0
   -2.5914    1.3154   -0.9793 C   0  0  0  0  0  0  0  0  0  0  0  0
   -0.8364    2.9051   -0.2762 C   0  0  0  0  0  0  0  0  0  0  0  0
    0.4517    2.7073   -1.0759 C   0  0  0  0  0  0  0  0  0  0  0  0
    2.4692    1.3423   -1.3567 C   0  0  0  0  0  0  0  0  0  0  0  0
    3.2031    0.0402   -0.9922 C   0  0  0  0  0  0  0  0  0  0  0  0
    2.4873   -1.2635   -1.3858 C   0  0  0  0  0  0  0  0  0  0  0  0
    2.0018   -2.2855    0.7763 C   0  0  0  0  0  0  0  0  0  0  0  0
   -2.1412   -1.8606    1.3614 C   0  0  0  0  0  0  0  0  0  0  0  0
   -2.1890    1.8130    1.3915 C   0  0  0  0  0  0  0  0  0  0  0  0
    1.9451    2.2980    0.8265 C   0  0  0  0  0  0  0  0  0  0  0  0
    1.0122   -3.6483   -1.2478 H   0  0  0  0  0  0  0  0  0  0  0  0
    0.2840   -2.2899   -2.1090 H   0  0  0  0  0  0  0  0  0  0  0  0
   -1.4366   -3.5867   -0.9095 H   0  0  0  0  0  0  0  0  0  0  0  0
   -0.5572   -3.4262    0.5989 H   0  0  0  0  0  0  0  0  0  0  0  0
   -2.1300   -1.3793   -1.9703 H   0  0  0  0  0  0  0  0  0  0  0  0
   -3.3444   -2.1611   -0.9619 H   0  0  0  0  0  0  0  0  0  0  0  0
   -4.1236   -0.0152   -1.5752 H   0  0  0  0  0  0  0  0  0  0  0  0
   -3.8939   -0.0231    0.1432 H   0  0  0  0  0  0  0  0  0  0  0  0
   -3.3407    2.1220   -0.9842 H   0  0  0  0  0  0  0  0  0  0  0  0
   -2.0737    1.3193   -1.9384 H   0  0  0  0  0  0  0  0  0  0  0  0
   -1.5006    3.5782   -0.8341 H   0  0  0  0  0  0  0  0  0  0  0  0
   -0.6095    3.4048    0.6672 H   0  0  0  0  0  0  0  0  0  0  0  0
    0.9460    3.6828   -1.1944 H   0  0  0  0  0  0  0  0  0  0  0  0
    0.2207    2.3067   -2.0607 H   0  0  0  0  0  0  0  0  0  0  0  0
    2.0189    1.2287   -2.3433 H   0  0  0  0  0  0  0  0  0  0  0  0
    3.1947    2.1670   -1.4045 H   0  0  0  0  0  0  0  0  0  0  0  0
    4.1488    0.0528   -1.5463 H   0  0  0  0  0  0  0  0  0  0  0  0
    3.4875    0.0296    0.0652 H   0  0  0  0  0  0  0  0  0  0  0  0
    3.2255   -2.0743   -1.4685 H   0  0  0  0  0  0  0  0  0  0  0  0
    2.0264   -1.1243   -2.3646 H   0  0  0  0  0  0  0  0  0  0  0  0
    2.5896   -3.1822    0.5350 H   0  0  0  0  0  0  0  0  0  0  0  0
    2.6467   -1.5506    1.2568 H   0  0  0  0  0  0  0  0  0  0  0  0
    1.2188   -2.5402    1.4884 H   0  0  0  0  0  0  0  0  0  0  0  0
   -2.8145   -2.7291    1.3562 H   0  0  0  0  0  0  0  0  0  0  0  0
   -1.3463   -2.0060    2.0911 H   0  0  0  0  0  0  0  0  0  0  0  0
   -2.7043   -0.9819    1.6631 H   0  0  0  0  0  0  0  0  0  0  0  0
   -2.8631    2.6808    1.3916 H   0  0  0  0  0  0  0  0  0  0  0  0
   -2.7583    0.9307    1.6717 H   0  0  0  0  0  0  0  0  0  0  0  0
   -1.4053    1.9474    2.1364 H   0  0  0  0  0  0  0  0  0  0  0  0
    2.5032    3.2201    0.6130 H   0  0  0  0  0  0  0  0  0  0  0  0
    1.1525    2.5054    1.5432 H   0  0  0  0  0  0  0  0  0  0  0  0
    2.6132    1.5707    1.2867 H   0  0  0  0  0  0  0  0  0  0  0  0
   -0.5466   -0.4671   -2.6409 H   0  0  0  0  0  0  0  0  0  0  0  0
  1  3  1  0  0  0  0
  2  1  1  0  0  0  0
  3  4  2  0  0  0  0
  4  5  2  0  0  0  0
  6 20  1  1  0  0  0
  6  1  9  0  0  0  0
  7 21  1  1  0  0  0
  7  1  9  0  0  0  0
  8 22  1  1  0  0  0
  8  1  9  0  0  0  0
  9 23  1  1  0  0  0
  9  1  9  0  0  0  0
 10  6  1  0  0  0  0
 10 11  1  0  0  0  0
 11  7  1  0  0  0  0
 11 27  1  0  0  0  0
 12 29  1  0  0  0  0
 12 13  1  0  0  0  0
 12  7  1  0  0  0  0
 13 31  1  0  0  0  0
 14 13  1  0  0  0  0
 14  8  1  0  0  0  0
 15  8  1  0  0  0  0
 15 35  1  0  0  0  0
 16  9  1  0  0  0  0
 16 15  1  0  0  0  0
 17 18  1  0  0  0  0
 17  9  1  0  0  0  0
 18 41  1  0  0  0  0
 19 18  1  0  0  0  0
 19  6  1  0  0  0  0
 20 45  1  0  0  0  0
 20 46  1  0  0  0  0
 21 49  1  0  0  0  0
 21 48  1  0  0  0  0
 22 50  1  0  0  0  0
 22 51  1  0  0  0  0
 22 52  1  0  0  0  0
 23 55  1  0  0  0  0
 23 54  1  0  0  0  0
 24 10  1  0  0  0  0
 25 10  1  0  0  0  0
 26 11  1  0  0  0  0
 28 12  1  0  0  0  0
 30 13  1  0  0  0  0
 32 14  1  0  0  0  0
 33 14  1  0  0  0  0
 34 15  1  0  0  0  0
 36 16  1  0  0  0  0
 37 16  1  0  0  0  0
 38 17  1  0  0  0  0
 39 17  1  0  0  0  0
 40 18  1  0  0  0  0
 42 19  1  0  0  0  0
 43 19  1  0  0  0  0
 44 20  1  0  0  0  0
 47 21  1  0  0  0  0
 53 23  1  0  0  0  0
 56  2  1  0  0  0  0
M  CHG  1   1   1
M  END
$$$$
