
 OpenBabel02052520083D

 55 59  0  0  0  0  0  0  0  0999 V2000
    0.0022    0.0704    0.0811 Fe  0  3  0  0  0  0  0  0  0  0  0  0
   -1.1477    1.9904    0.1248 N   0  0  1  0  0  0  0  0  0  0  0  0
    1.7239    1.4307    0.4783 N   0  0  2  0  0  0  0  0  0  0  0  0
    1.3684   -1.7567   -0.1835 N   0  0  2  0  0  0  0  0  0  0  0  0
   -1.6190   -1.3416   -0.4599 N   0  0  2  0  0  0  0  0  0  0  0  0
   -0.1302    2.9732   -0.3525 C   0  0  0  0  0  0  0  0  0  0  0  0
    1.1867    2.8373    0.4148 C   0  0  0  0  0  0  0  0  0  0  0  0
    2.7498    1.2153   -0.6008 C   0  0  0  0  0  0  0  0  0  0  0  0
    3.3322   -0.2041   -0.7412 C   0  0  0  0  0  0  0  0  0  0  0  0
    2.4315   -1.3789   -1.1724 C   0  0  0  0  0  0  0  0  0  0  0  0
    0.4425   -2.8190   -0.7179 C   0  0  0  0  0  0  0  0  0  0  0  0
   -0.8864   -2.3306   -1.3137 C   0  0  0  0  0  0  0  0  0  0  0  0
   -2.6797   -0.6422   -1.2667 C   0  0  0  0  0  0  0  0  0  0  0  0
   -3.2009    0.6770   -0.6667 C   0  0  0  0  0  0  0  0  0  0  0  0
   -2.3111    1.9229   -0.8173 C   0  0  0  0  0  0  0  0  0  0  0  0
   -1.6319    2.3818    1.4722 C   0  0  0  0  0  0  0  0  0  0  0  0
    2.3387    1.2351    1.8169 C   0  0  0  0  0  0  0  0  0  0  0  0
    2.0418   -2.3289    1.0140 C   0  0  0  0  0  0  0  0  0  0  0  0
   -2.2727   -1.9730    0.7283 C   0  0  0  0  0  0  0  0  0  0  0  0
   -0.4794   -0.5402    2.3038 S   0  0  0  0  0  0  0  0  0  0  0  0
   -1.3870   -2.0988    1.9647 C   0  0  0  0  0  0  0  0  0  0  0  0
   -0.5045    3.9997   -0.2284 H   0  0  0  0  0  0  0  0  0  0  0  0
    0.0321    2.7932   -1.4127 H   0  0  0  0  0  0  0  0  0  0  0  0
    1.0526    3.1802    1.4422 H   0  0  0  0  0  0  0  0  0  0  0  0
    1.9342    3.4979   -0.0405 H   0  0  0  0  0  0  0  0  0  0  0  0
    3.5898    1.8956   -0.3948 H   0  0  0  0  0  0  0  0  0  0  0  0
    2.2893    1.5174   -1.5391 H   0  0  0  0  0  0  0  0  0  0  0  0
    4.0892   -0.1175   -1.5307 H   0  0  0  0  0  0  0  0  0  0  0  0
    3.8994   -0.4661    0.1575 H   0  0  0  0  0  0  0  0  0  0  0  0
    1.9405   -1.1442   -2.1134 H   0  0  0  0  0  0  0  0  0  0  0  0
    3.0776   -2.2556   -1.3313 H   0  0  0  0  0  0  0  0  0  0  0  0
    0.9611   -3.4045   -1.4879 H   0  0  0  0  0  0  0  0  0  0  0  0
    0.2360   -3.5066    0.1031 H   0  0  0  0  0  0  0  0  0  0  0  0
   -1.5205   -3.2107   -1.4925 H   0  0  0  0  0  0  0  0  0  0  0  0
   -0.7001   -1.8477   -2.2693 H   0  0  0  0  0  0  0  0  0  0  0  0
   -3.5224   -1.3374   -1.3870 H   0  0  0  0  0  0  0  0  0  0  0  0
   -2.2665   -0.4455   -2.2544 H   0  0  0  0  0  0  0  0  0  0  0  0
   -3.5018    0.5443    0.3780 H   0  0  0  0  0  0  0  0  0  0  0  0
   -4.1288    0.9022   -1.2061 H   0  0  0  0  0  0  0  0  0  0  0  0
   -1.9189    1.9646   -1.8324 H   0  0  0  0  0  0  0  0  0  0  0  0
   -2.9280    2.8186   -0.6570 H   0  0  0  0  0  0  0  0  0  0  0  0
   -2.0662    3.3906    1.4413 H   0  0  0  0  0  0  0  0  0  0  0  0
   -0.8150    2.3631    2.1929 H   0  0  0  0  0  0  0  0  0  0  0  0
   -2.3809    1.6719    1.8179 H   0  0  0  0  0  0  0  0  0  0  0  0
    3.1776    1.9293    1.9610 H   0  0  0  0  0  0  0  0  0  0  0  0
    2.6960    0.2151    1.9241 H   0  0  0  0  0  0  0  0  0  0  0  0
    1.5921    1.4060    2.5933 H   0  0  0  0  0  0  0  0  0  0  0  0
    2.5673   -3.2556    0.7453 H   0  0  0  0  0  0  0  0  0  0  0  0
    1.3194   -2.5337    1.7994 H   0  0  0  0  0  0  0  0  0  0  0  0
    2.7695   -1.6297    1.4159 H   0  0  0  0  0  0  0  0  0  0  0  0
   -2.6747   -2.9554    0.4420 H   0  0  0  0  0  0  0  0  0  0  0  0
   -3.1217   -1.3449    0.9981 H   0  0  0  0  0  0  0  0  0  0  0  0
   -2.0172   -2.3209    2.8312 H   0  0  0  0  0  0  0  0  0  0  0  0
   -0.6721   -2.9201    1.8785 H   0  0  0  0  0  0  0  0  0  0  0  0
    0.1595    0.4916   -2.3648 Cl  0  0  0  0  0  0  0  0  0  0  0  0
  1 20  1  0  0  0  0
  2 16  1  1  0  0  0
  2  1  9  0  0  0  0
  3 17  1  1  0  0  0
  3  1  9  0  0  0  0
  4 18  1  1  0  0  0
  4  1  9  0  0  0  0
  5 12  1  6  0  0  0
  5 19  1  0  0  0  0
  5  1  9  0  0  0  0
  6 22  1  0  0  0  0
  6  2  1  0  0  0  0
  6  7  1  0  0  0  0
  7  3  1  0  0  0  0
  7 24  1  0  0  0  0
  8 26  1  0  0  0  0
  8  3  1  0  0  0  0
  9  8  1  0  0  0  0
  9 29  1  0  0  0  0
 10  9  1  0  0  0  0
 10  4  1  0  0  0  0
 11  4  1  0  0  0  0
 11 33  1  0  0  0  0
 12 11  1  0  0  0  0
 13 14  1  0  0  0  0
 13  5  1  0  0  0  0
 14 38  1  0  0  0  0
 15 14  1  0  0  0  0
 15 41  1  0  0  0  0
 15  2  1  0  0  0  0
 16 44  1  0  0  0  0
 16 43  1  0  0  0  0
 17 46  1  0  0  0  0
 17 45  1  0  0  0  0
 17 47  1  0  0  0  0
 18 50  1  0  0  0  0
 18 49  1  0  0  0  0
 19 52  1  0  0  0  0
 19 21  1  0  0  0  0
 21 20  1  0  0  0  0
 21 53  1  0  0  0  0
 23  6  1  0  0  0  0
 25  7  1  0  0  0  0
 27  8  1  0  0  0  0
 28  9  1  0  0  0  0
 30 10  1  0  0  0  0
 31 10  1  0  0  0  0
 32 11  1  0  0  0  0
 34 12  1  0  0  0  0
 35 12  1  0  0  0  0
 36 13  1  0  0  0  0
 37 13  1  0  0  0  0
 39 14  1  0  0  0  0
 40 15  1  0  0  0  0
 42 16  1  0  0  0  0
 48 18  1  0  0  0  0
 51 19  1  0  0  0  0
 54 21  1  0  0  0  0
 55  1  1  0  0  0  0
M  CHG  1   1   1
M  END
$$$$
