
 OpenBabel02052520083D

 55 59  0  0  0  0  0  0  0  0999 V2000
    0.0083    0.0893    0.0506 Fe  0  3  0  0  0  0  0  0  0  0  0  0
   -1.0112    2.0822   -0.0728 N   0  0  1  0  0  0  0  0  0  0  0  0
    1.8382    1.3491    0.3194 N   0  0  2  0  0  0  0  0  0  0  0  0
    1.2806   -1.8129   -0.2155 N   0  0  2  0  0  0  0  0  0  0  0  0
   -1.6684   -1.2573   -0.5246 N   0  0  2  0  0  0  0  0  0  0  0  0
    0.0980    2.9267   -0.5955 C   0  0  0  0  0  0  0  0  0  0  0  0
    1.3578    2.7675    0.2485 C   0  0  0  0  0  0  0  0  0  0  0  0
    2.7213    1.0609   -0.8585 C   0  0  0  0  0  0  0  0  0  0  0  0
    3.2484   -0.3753   -0.9947 C   0  0  0  0  0  0  0  0  0  0  0  0
    2.2433   -1.4933   -1.3138 C   0  0  0  0  0  0  0  0  0  0  0  0
    0.2879   -2.8434   -0.6609 C   0  0  0  0  0  0  0  0  0  0  0  0
   -0.9480   -2.2719   -1.3478 C   0  0  0  0  0  0  0  0  0  0  0  0
   -2.6346   -0.5218   -1.4009 C   0  0  0  0  0  0  0  0  0  0  0  0
   -3.0977    0.8449   -0.8745 C   0  0  0  0  0  0  0  0  0  0  0  0
   -2.1069    2.0003   -1.0833 C   0  0  0  0  0  0  0  0  0  0  0  0
   -1.5329    2.6195    1.2046 C   0  0  0  0  0  0  0  0  0  0  0  0
    2.5607    1.1702    1.6013 C   0  0  0  0  0  0  0  0  0  0  0  0
    1.9985   -2.3721    0.9554 C   0  0  0  0  0  0  0  0  0  0  0  0
   -2.3822   -1.8293    0.6547 C   0  0  0  0  0  0  0  0  0  0  0  0
   -0.5782   -0.3938    2.2590 S   0  0  0  0  0  0  0  0  0  0  0  0
   -1.5472   -1.9253    1.9357 C   0  0  0  0  0  0  0  0  0  0  0  0
   -0.1967    3.9860   -0.6131 H   0  0  0  0  0  0  0  0  0  0  0  0
    0.2900    2.6032   -1.6178 H   0  0  0  0  0  0  0  0  0  0  0  0
    1.1694    3.1016    1.2704 H   0  0  0  0  0  0  0  0  0  0  0  0
    2.1528    3.4100   -0.1529 H   0  0  0  0  0  0  0  0  0  0  0  0
    3.5867    1.7382   -0.8022 H   0  0  0  0  0  0  0  0  0  0  0  0
    2.1430    1.3066   -1.7484 H   0  0  0  0  0  0  0  0  0  0  0  0
    3.9388   -0.3474   -1.8469 H   0  0  0  0  0  0  0  0  0  0  0  0
    3.8752   -0.6412   -0.1381 H   0  0  0  0  0  0  0  0  0  0  0  0
    1.6525   -1.2007   -2.1806 H   0  0  0  0  0  0  0  0  0  0  0  0
    2.8067   -2.4063   -1.5603 H   0  0  0  0  0  0  0  0  0  0  0  0
    0.7730   -3.5527   -1.3461 H   0  0  0  0  0  0  0  0  0  0  0  0
   -0.0090   -3.4164    0.2176 H   0  0  0  0  0  0  0  0  0  0  0  0
   -1.6233   -3.0998   -1.6084 H   0  0  0  0  0  0  0  0  0  0  0  0
   -0.6494   -1.7676   -2.2650 H   0  0  0  0  0  0  0  0  0  0  0  0
   -3.5082   -1.1684   -1.5660 H   0  0  0  0  0  0  0  0  0  0  0  0
   -2.1420   -0.3727   -2.3617 H   0  0  0  0  0  0  0  0  0  0  0  0
   -3.4127    0.7828    0.1724 H   0  0  0  0  0  0  0  0  0  0  0  0
   -4.0027    1.1014   -1.4376 H   0  0  0  0  0  0  0  0  0  0  0  0
   -1.6337    1.8857   -2.0587 H   0  0  0  0  0  0  0  0  0  0  0  0
   -2.6516    2.9555   -1.0769 H   0  0  0  0  0  0  0  0  0  0  0  0
   -1.8896    3.6507    1.0718 H   0  0  0  0  0  0  0  0  0  0  0  0
   -0.7592    2.5975    1.9716 H   0  0  0  0  0  0  0  0  0  0  0  0
   -2.3475    1.9921    1.5622 H   0  0  0  0  0  0  0  0  0  0  0  0
    3.4044    1.8705    1.6742 H   0  0  0  0  0  0  0  0  0  0  0  0
    2.9363    0.1548    1.6888 H   0  0  0  0  0  0  0  0  0  0  0  0
    1.8718    1.3402    2.4305 H   0  0  0  0  0  0  0  0  0  0  0  0
    2.4317   -3.3522    0.7104 H   0  0  0  0  0  0  0  0  0  0  0  0
    1.3121   -2.4688    1.7956 H   0  0  0  0  0  0  0  0  0  0  0  0
    2.8047   -1.7131    1.2657 H   0  0  0  0  0  0  0  0  0  0  0  0
   -2.7949   -2.8148    0.3934 H   0  0  0  0  0  0  0  0  0  0  0  0
   -3.2273   -1.1722    0.8640 H   0  0  0  0  0  0  0  0  0  0  0  0
   -2.2245   -2.0817    2.7804 H   0  0  0  0  0  0  0  0  0  0  0  0
   -0.8655   -2.7789    1.9200 H   0  0  0  0  0  0  0  0  0  0  0  0
    0.1278    0.3093   -1.8039 F   0  0  0  0  0  0  0  0  0  0  0  0
  1 20  1  0  0  0  0
  2 16  1  1  0  0  0
  2  1  9  0  0  0  0
  3 17  1  1  0  0  0
  3  1  9  0  0  0  0
  4 18  1  1  0  0  0
  4  1  9  0  0  0  0
  5 13  1  6  0  0  0
  5 19  1  0  0  0  0
  5  1  9  0  0  0  0
  6  2  1  0  0  0  0
  6  7  1  0  0  0  0
  7  3  1  0  0  0  0
  7 24  1  0  0  0  0
  8 26  1  0  0  0  0
  8  3  1  0  0  0  0
  9  8  1  0  0  0  0
  9 29  1  0  0  0  0
 10  9  1  0  0  0  0
 10  4  1  0  0  0  0
 11  4  1  0  0  0  0
 11 33  1  0  0  0  0
 12 11  1  0  0  0  0
 12  5  1  0  0  0  0
 13 14  1  0  0  0  0
 14 38  1  0  0  0  0
 15 41  1  0  0  0  0
 15 14  1  0  0  0  0
 15  2  1  0  0  0  0
 16 44  1  0  0  0  0
 16 43  1  0  0  0  0
 17 45  1  0  0  0  0
 17 46  1  0  0  0  0
 17 47  1  0  0  0  0
 18 50  1  0  0  0  0
 18 49  1  0  0  0  0
 19 52  1  0  0  0  0
 19 21  1  0  0  0  0
 21 20  1  0  0  0  0
 21 53  1  0  0  0  0
 22  6  1  0  0  0  0
 23  6  1  0  0  0  0
 25  7  1  0  0  0  0
 27  8  1  0  0  0  0
 28  9  1  0  0  0  0
 30 10  1  0  0  0  0
 31 10  1  0  0  0  0
 32 11  1  0  0  0  0
 34 12  1  0  0  0  0
 35 12  1  0  0  0  0
 36 13  1  0  0  0  0
 37 13  1  0  0  0  0
 39 14  1  0  0  0  0
 40 15  1  0  0  0  0
 42 16  1  0  0  0  0
 48 18  1  0  0  0  0
 51 19  1  0  0  0  0
 54 21  1  0  0  0  0
 55  1  1  0  0  0  0
M  CHG  1   1   1
M  END
$$$$
