
 OpenBabel02052520083D

 65 72  0  0  0  0  0  0  0  0999 V2000
    0.9832   -0.0599    0.5009 Fe  0  0  0  0  0  0  0  0  0  0  0  0
    0.9887    2.1714   -0.0571 N   0  0  0  0  0  0  0  0  0  0  0  0
    0.4829   -2.1854    0.8331 N   0  0  0  0  0  0  0  0  0  0  0  0
    3.0002   -0.1242    0.1720 N   0  0  0  0  0  0  0  0  0  0  0  0
    1.1900   -1.0984   -1.6243 N   0  0  2  0  0  0  0  0  0  0  0  0
   -1.0811    0.4395   -0.5943 N   0  0  2  0  0  0  0  0  0  0  0  0
   -0.0495   -0.9454   -2.3980 C   0  0  0  0  0  0  0  0  0  0  0  0
   -0.6802   -1.8133   -2.1830 H   0  0  0  0  0  0  0  0  0  0  0  0
    0.1449   -0.9607   -3.4837 H   0  0  0  0  0  0  0  0  0  0  0  0
   -0.8045    0.3367   -2.0393 C   0  0  0  0  0  0  0  0  0  0  0  0
   -0.1929    1.2016   -2.3102 H   0  0  0  0  0  0  0  0  0  0  0  0
   -1.7273    0.3977   -2.6366 H   0  0  0  0  0  0  0  0  0  0  0  0
    1.5087   -2.5034   -1.3406 C   0  0  0  0  0  0  0  0  0  0  0  0
    2.5564   -2.5469   -1.0270 H   0  0  0  0  0  0  0  0  0  0  0  0
    1.4080   -3.1425   -2.2331 H   0  0  0  0  0  0  0  0  0  0  0  0
    0.6614   -3.0368   -0.2021 C   0  0  0  0  0  0  0  0  0  0  0  0
    0.1350   -4.3241   -0.2027 C   0  0  0  0  0  0  0  0  0  0  0  0
    0.2880   -4.9697   -1.0631 H   0  0  0  0  0  0  0  0  0  0  0  0
   -0.5850   -4.7687    0.9135 C   0  0  0  0  0  0  0  0  0  0  0  0
   -1.0078   -5.7688    0.9346 H   0  0  0  0  0  0  0  0  0  0  0  0
   -0.7469   -3.8989    1.9908 C   0  0  0  0  0  0  0  0  0  0  0  0
   -1.2961   -4.1940    2.8792 H   0  0  0  0  0  0  0  0  0  0  0  0
   -0.2001   -2.6191    1.9090 C   0  0  0  0  0  0  0  0  0  0  0  0
   -0.3144   -1.8906    2.7046 H   0  0  0  0  0  0  0  0  0  0  0  0
    2.3346   -0.3357   -2.1533 C   0  0  0  0  0  0  0  0  0  0  0  0
    1.9657    0.6777   -2.3542 H   0  0  0  0  0  0  0  0  0  0  0  0
    2.7117   -0.7507   -3.1039 H   0  0  0  0  0  0  0  0  0  0  0  0
    3.4387   -0.2682   -1.1236 C   0  0  0  0  0  0  0  0  0  0  0  0
    4.7809   -0.3401   -1.4515 C   0  0  0  0  0  0  0  0  0  0  0  0
    5.0660   -0.4721   -2.4925 H   0  0  0  0  0  0  0  0  0  0  0  0
    5.7584   -0.2383   -0.4463 C   0  0  0  0  0  0  0  0  0  0  0  0
    6.8154   -0.2849   -0.6860 H   0  0  0  0  0  0  0  0  0  0  0  0
    5.3134   -0.0797    0.8792 C   0  0  0  0  0  0  0  0  0  0  0  0
    6.0197    0.0039    1.7003 H   0  0  0  0  0  0  0  0  0  0  0  0
    3.9574   -0.0301    1.1449 C   0  0  0  0  0  0  0  0  0  0  0  0
    3.5736    0.0956    2.1533 H   0  0  0  0  0  0  0  0  0  0  0  0
   -1.4133    1.8264   -0.2230 C   0  0  0  0  0  0  0  0  0  0  0  0
   -1.7738    1.8176    0.8108 H   0  0  0  0  0  0  0  0  0  0  0  0
   -2.2277    2.2317   -0.8423 H   0  0  0  0  0  0  0  0  0  0  0  0
   -0.2078    2.7375   -0.2908 C   0  0  0  0  0  0  0  0  0  0  0  0
   -0.3443    4.1061   -0.5339 C   0  0  0  0  0  0  0  0  0  0  0  0
   -1.3279    4.5242   -0.7275 H   0  0  0  0  0  0  0  0  0  0  0  0
    0.7908    4.9151   -0.5135 C   0  0  0  0  0  0  0  0  0  0  0  0
    0.7087    5.9835   -0.6926 H   0  0  0  0  0  0  0  0  0  0  0  0
    2.0313    4.3262   -0.2627 C   0  0  0  0  0  0  0  0  0  0  0  0
    2.9431    4.9146   -0.2374 H   0  0  0  0  0  0  0  0  0  0  0  0
    2.0805    2.9516   -0.0452 C   0  0  0  0  0  0  0  0  0  0  0  0
    3.0166    2.4383    0.1509 H   0  0  0  0  0  0  0  0  0  0  0  0
   -2.1133   -0.5173   -0.0977 C   0  0  0  0  0  0  0  0  0  0  0  0
   -2.0728   -0.4663    0.9927 H   0  0  0  0  0  0  0  0  0  0  0  0
   -1.7876   -1.5207   -0.3781 H   0  0  0  0  0  0  0  0  0  0  0  0
   -3.5256   -0.2645   -0.5818 C   0  0  0  0  0  0  0  0  0  0  0  0
   -3.9855   -0.8094   -1.7891 C   0  0  0  0  0  0  0  0  0  0  0  0
   -3.3331   -1.4638   -2.3642 H   0  0  0  0  0  0  0  0  0  0  0  0
   -5.2754   -0.5403   -2.2508 C   0  0  0  0  0  0  0  0  0  0  0  0
   -5.6174   -0.9726   -3.1877 H   0  0  0  0  0  0  0  0  0  0  0  0
   -6.1270    0.2751   -1.5022 C   0  0  0  0  0  0  0  0  0  0  0  0
   -7.1330    0.4836   -1.8569 H   0  0  0  0  0  0  0  0  0  0  0  0
   -5.6857    0.8087   -0.2885 C   0  0  0  0  0  0  0  0  0  0  0  0
   -6.3500    1.4292    0.3073 H   0  0  0  0  0  0  0  0  0  0  0  0
   -4.3952    0.5394    0.1699 C   0  0  0  0  0  0  0  0  0  0  0  0
   -4.0574    0.9377    1.1244 H   0  0  0  0  0  0  0  0  0  0  0  0
    0.2548    0.5339    2.3829 N   0  0  0  0  0  0  0  0  0  0  0  0
   -0.7591    0.8099    2.9360 C   0  0  0  0  0  0  0  0  0  0  0  0
   -2.1981    1.1752    3.6284 S   0  0  0  0  0  0  0  0  0  0  0  0
  1 63  1  0  0  0  0
  2 47  1  0  0  0  0
  2  1  9  0  0  0  0
  3 23  1  0  0  0  0
  3  1  9  0  0  0  0
  4 35  1  0  0  0  0
  4  1  9  0  0  0  0
  5  7  1  6  0  0  0
  5 13  1  0  0  0  0
  5  1  9  0  0  0  0
  6 37  1  0  0  0  0
  6 49  1  1  0  0  0
  6  1  9  0  0  0  0
  7  8  1  0  0  0  0
  7 10  1  0  0  0  0
  9  7  1  0  0  0  0
 10  6  1  0  0  0  0
 11 10  1  0  0  0  0
 12 10  1  0  0  0  0
 13 14  1  0  0  0  0
 13 16  1  0  0  0  0
 15 13  1  0  0  0  0
 16  3  2  0  0  0  0
 17 16  1  0  0  0  0
 17 19  2  0  0  0  0
 18 17  1  0  0  0  0
 19 20  1  0  0  0  0
 19 21  1  0  0  0  0
 21 22  1  0  0  0  0
 23 21  2  0  0  0  0
 23 24  1  0  0  0  0
 25  5  1  0  0  0  0
 25 28  1  0  0  0  0
 26 25  1  0  0  0  0
 27 25  1  0  0  0  0
 28  4  2  0  0  0  0
 29 28  1  0  0  0  0
 29 31  2  0  0  0  0
 30 29  1  0  0  0  0
 31 33  1  0  0  0  0
 32 31  1  0  0  0  0
 33 35  2  0  0  0  0
 33 34  1  0  0  0  0
 35 36  1  0  0  0  0
 37 38  1  0  0  0  0
 39 37  1  0  0  0  0
 40 37  1  0  0  0  0
 40  2  2  0  0  0  0
 41 43  2  0  0  0  0
 41 40  1  0  0  0  0
 42 41  1  0  0  0  0
 43 45  1  0  0  0  0
 44 43  1  0  0  0  0
 45 46  1  0  0  0  0
 45 47  2  0  0  0  0
 47 48  1  0  0  0  0
 49 50  1  0  0  0  0
 51 49  1  0  0  0  0
 52 49  1  0  0  0  0
 52 61  2  0  0  0  0
 53 52  1  0  0  0  0
 54 53  1  0  0  0  0
 55 53  2  0  0  0  0
 55 57  1  0  0  0  0
 56 55  1  0  0  0  0
 57 59  2  0  0  0  0
 58 57  1  0  0  0  0
 59 61  1  0  0  0  0
 59 60  1  0  0  0  0
 61 62  1  0  0  0  0
 63 64  2  0  0  0  0
 64 65  2  0  0  0  0
M  END
$$$$
