
 OpenBabel02052520083D

 63 70  0  0  0  0  0  0  0  0999 V2000
    0.8618   -0.0950    0.6238 Fe  0  0  0  0  0  0  0  0  0  0  0  0
    0.9922    2.1761    0.2885 N   0  0  0  0  0  0  0  0  0  0  0  0
    0.3014   -2.2574    0.7249 N   0  0  0  0  0  0  0  0  0  0  0  0
    2.8261   -0.2262    0.0891 N   0  0  0  0  0  0  0  0  0  0  0  0
    0.8164   -0.8813   -1.6338 N   0  0  2  0  0  0  0  0  0  0  0  0
   -1.2381    0.6336   -0.2109 N   0  0  2  0  0  0  0  0  0  0  0  0
   -0.4821   -0.5877   -2.2505 C   0  0  0  0  0  0  0  0  0  0  0  0
   -1.1346   -1.4460   -2.0626 H   0  0  0  0  0  0  0  0  0  0  0  0
   -0.4010   -0.4894   -3.3467 H   0  0  0  0  0  0  0  0  0  0  0  0
   -1.1279    0.6784   -1.6796 C   0  0  0  0  0  0  0  0  0  0  0  0
   -0.5078    1.5434   -1.9289 H   0  0  0  0  0  0  0  0  0  0  0  0
   -2.1060    0.8367   -2.1601 H   0  0  0  0  0  0  0  0  0  0  0  0
    1.0975   -2.3195   -1.5675 C   0  0  0  0  0  0  0  0  0  0  0  0
    2.1701   -2.4375   -1.3847 H   0  0  0  0  0  0  0  0  0  0  0  0
    0.8714   -2.8327   -2.5169 H   0  0  0  0  0  0  0  0  0  0  0  0
    0.3591   -2.9761   -0.4177 C   0  0  0  0  0  0  0  0  0  0  0  0
   -0.1800   -4.2552   -0.5187 C   0  0  0  0  0  0  0  0  0  0  0  0
   -0.1272   -4.7904   -1.4628 H   0  0  0  0  0  0  0  0  0  0  0  0
   -0.7784   -4.8344    0.6066 C   0  0  0  0  0  0  0  0  0  0  0  0
   -1.2060   -5.8315    0.5522 H   0  0  0  0  0  0  0  0  0  0  0  0
   -0.8122   -4.1027    1.7925 C   0  0  0  0  0  0  0  0  0  0  0  0
   -1.2616   -4.5080    2.6938 H   0  0  0  0  0  0  0  0  0  0  0  0
   -0.2667   -2.8192    1.8084 C   0  0  0  0  0  0  0  0  0  0  0  0
   -0.2851   -2.1840    2.6892 H   0  0  0  0  0  0  0  0  0  0  0  0
    1.9427   -0.0942   -2.1677 C   0  0  0  0  0  0  0  0  0  0  0  0
    1.6076    0.9501   -2.1915 H   0  0  0  0  0  0  0  0  0  0  0  0
    2.2073   -0.3872   -3.1986 H   0  0  0  0  0  0  0  0  0  0  0  0
    3.1385   -0.2144   -1.2521 C   0  0  0  0  0  0  0  0  0  0  0  0
    4.4390   -0.2987   -1.7148 C   0  0  0  0  0  0  0  0  0  0  0  0
    4.6207   -0.3025   -2.7871 H   0  0  0  0  0  0  0  0  0  0  0  0
    5.5087   -0.3713   -0.8045 C   0  0  0  0  0  0  0  0  0  0  0  0
    6.5356   -0.4304   -1.1490 H   0  0  0  0  0  0  0  0  0  0  0  0
    5.1931   -0.3692    0.5689 C   0  0  0  0  0  0  0  0  0  0  0  0
    5.9745   -0.4224    1.3218 H   0  0  0  0  0  0  0  0  0  0  0  0
    3.8726   -0.3001    0.9699 C   0  0  0  0  0  0  0  0  0  0  0  0
    3.5867   -0.2907    2.0179 H   0  0  0  0  0  0  0  0  0  0  0  0
   -1.4194    1.9793    0.3618 C   0  0  0  0  0  0  0  0  0  0  0  0
   -1.5750    1.8411    1.4376 H   0  0  0  0  0  0  0  0  0  0  0  0
   -2.2972    2.4947   -0.0560 H   0  0  0  0  0  0  0  0  0  0  0  0
   -0.1801    2.8285    0.1994 C   0  0  0  0  0  0  0  0  0  0  0  0
   -0.2489    4.2116    0.0270 C   0  0  0  0  0  0  0  0  0  0  0  0
   -1.2163    4.6989   -0.0548 H   0  0  0  0  0  0  0  0  0  0  0  0
    0.9356    4.9467   -0.0293 C   0  0  0  0  0  0  0  0  0  0  0  0
    0.9093    6.0252   -0.1578 H   0  0  0  0  0  0  0  0  0  0  0  0
    2.1510    4.2697    0.0800 C   0  0  0  0  0  0  0  0  0  0  0  0
    3.0985    4.7982    0.0444 H   0  0  0  0  0  0  0  0  0  0  0  0
    2.1296    2.8849    0.2323 C   0  0  0  0  0  0  0  0  0  0  0  0
    3.0436    2.3056    0.3144 H   0  0  0  0  0  0  0  0  0  0  0  0
   -2.2595   -0.3198    0.3039 C   0  0  0  0  0  0  0  0  0  0  0  0
   -2.1044   -0.3546    1.3864 H   0  0  0  0  0  0  0  0  0  0  0  0
   -2.0029   -1.3094   -0.0788 H   0  0  0  0  0  0  0  0  0  0  0  0
   -3.6957    0.0169   -0.0405 C   0  0  0  0  0  0  0  0  0  0  0  0
   -4.2870   -0.4760   -1.2125 C   0  0  0  0  0  0  0  0  0  0  0  0
   -3.7182   -1.1444   -1.8560 H   0  0  0  0  0  0  0  0  0  0  0  0
   -5.5971   -0.1356   -1.5547 C   0  0  0  0  0  0  0  0  0  0  0  0
   -6.0391   -0.5297   -2.4661 H   0  0  0  0  0  0  0  0  0  0  0  0
   -6.3400    0.7032   -0.7212 C   0  0  0  0  0  0  0  0  0  0  0  0
   -7.3611    0.9676   -0.9827 H   0  0  0  0  0  0  0  0  0  0  0  0
   -5.7682    1.1906    0.4567 C   0  0  0  0  0  0  0  0  0  0  0  0
   -6.3453    1.8321    1.1175 H   0  0  0  0  0  0  0  0  0  0  0  0
   -4.4579    0.8477    0.7931 C   0  0  0  0  0  0  0  0  0  0  0  0
   -4.0202    1.2188    1.7166 H   0  0  0  0  0  0  0  0  0  0  0  0
    0.2114    0.3549    2.9359 Cl  0  0  0  0  0  0  0  0  0  0  0  0
  1 63  1  0  0  0  0
  2  1  9  0  0  0  0
  3 23  1  0  0  0  0
  3  1  9  0  0  0  0
  4 35  1  0  0  0  0
  4  1  9  0  0  0  0
  5  7  1  6  0  0  0
  5 13  1  0  0  0  0
  5  1  9  0  0  0  0
  6 49  1  1  0  0  0
  6 37  1  0  0  0  0
  6  1  9  0  0  0  0
  7  8  1  0  0  0  0
  7 10  1  0  0  0  0
  9  7  1  0  0  0  0
 10  6  1  0  0  0  0
 11 10  1  0  0  0  0
 12 10  1  0  0  0  0
 13 14  1  0  0  0  0
 13 16  1  0  0  0  0
 15 13  1  0  0  0  0
 16  3  2  0  0  0  0
 17 16  1  0  0  0  0
 17 19  2  0  0  0  0
 18 17  1  0  0  0  0
 19 21  1  0  0  0  0
 20 19  1  0  0  0  0
 21 23  2  0  0  0  0
 21 22  1  0  0  0  0
 23 24  1  0  0  0  0
 25  5  1  0  0  0  0
 25 28  1  0  0  0  0
 26 25  1  0  0  0  0
 27 25  1  0  0  0  0
 28  4  2  0  0  0  0
 29 28  1  0  0  0  0
 29 31  2  0  0  0  0
 30 29  1  0  0  0  0
 31 33  1  0  0  0  0
 32 31  1  0  0  0  0
 33 35  2  0  0  0  0
 33 34  1  0  0  0  0
 35 36  1  0  0  0  0
 37 38  1  0  0  0  0
 39 37  1  0  0  0  0
 40  2  2  0  0  0  0
 40 37  1  0  0  0  0
 41 40  1  0  0  0  0
 42 41  1  0  0  0  0
 43 41  2  0  0  0  0
 43 45  1  0  0  0  0
 44 43  1  0  0  0  0
 45 47  2  0  0  0  0
 46 45  1  0  0  0  0
 47  2  1  0  0  0  0
 47 48  1  0  0  0  0
 49 50  1  0  0  0  0
 51 49  1  0  0  0  0
 52 49  1  0  0  0  0
 52 61  2  0  0  0  0
 53 52  1  0  0  0  0
 54 53  1  0  0  0  0
 55 53  2  0  0  0  0
 55 57  1  0  0  0  0
 56 55  1  0  0  0  0
 57 59  2  0  0  0  0
 58 57  1  0  0  0  0
 59 61  1  0  0  0  0
 59 60  1  0  0  0  0
 61 62  1  0  0  0  0
M  END
$$$$
