
 OpenBabel02052520083D

 63 70  0  0  0  0  0  0  0  0999 V2000
   -0.8450    0.1228    0.3983 Fe  0  0  0  0  0  0  0  0  0  0  0  0
   -0.9876   -2.1304   -0.0574 N   0  0  0  0  0  0  0  0  0  0  0  0
   -0.2552    2.2609    0.6292 N   0  0  0  0  0  0  0  0  0  0  0  0
   -2.8066    0.2914   -0.1497 N   0  0  0  0  0  0  0  0  0  0  0  0
   -0.7622    1.0164   -1.8030 N   0  0  2  0  0  0  0  0  0  0  0  0
    1.2613   -0.5900   -0.4262 N   0  0  2  0  0  0  0  0  0  0  0  0
    0.5445    0.7427   -2.4124 C   0  0  0  0  0  0  0  0  0  0  0  0
    1.2004    1.5845   -2.1694 H   0  0  0  0  0  0  0  0  0  0  0  0
    0.4814    0.7017   -3.5134 H   0  0  0  0  0  0  0  0  0  0  0  0
    1.1706   -0.5566   -1.8974 C   0  0  0  0  0  0  0  0  0  0  0  0
    0.5467   -1.4018   -2.1994 H   0  0  0  0  0  0  0  0  0  0  0  0
    2.1542   -0.6994   -2.3713 H   0  0  0  0  0  0  0  0  0  0  0  0
   -1.0288    2.4522   -1.6638 C   0  0  0  0  0  0  0  0  0  0  0  0
   -2.1007    2.5724   -1.4790 H   0  0  0  0  0  0  0  0  0  0  0  0
   -0.7923    3.0114   -2.5843 H   0  0  0  0  0  0  0  0  0  0  0  0
   -0.2885    3.0373   -0.4779 C   0  0  0  0  0  0  0  0  0  0  0  0
    0.2752    4.3086   -0.5134 C   0  0  0  0  0  0  0  0  0  0  0  0
    0.2399    4.8887   -1.4315 H   0  0  0  0  0  0  0  0  0  0  0  0
    0.8743    4.8235    0.6428 C   0  0  0  0  0  0  0  0  0  0  0  0
    1.3214    5.8134    0.6393 H   0  0  0  0  0  0  0  0  0  0  0  0
    0.8810    4.0357    1.7927 C   0  0  0  0  0  0  0  0  0  0  0  0
    1.3275    4.3888    2.7171 H   0  0  0  0  0  0  0  0  0  0  0  0
    0.3110    2.7641    1.7434 C   0  0  0  0  0  0  0  0  0  0  0  0
    0.3054    2.0938    2.5979 H   0  0  0  0  0  0  0  0  0  0  0  0
   -1.8870    0.2725   -2.3970 C   0  0  0  0  0  0  0  0  0  0  0  0
   -1.5619   -0.7718   -2.4788 H   0  0  0  0  0  0  0  0  0  0  0  0
   -2.1356    0.6281   -3.4119 H   0  0  0  0  0  0  0  0  0  0  0  0
   -3.0963    0.3482   -1.4921 C   0  0  0  0  0  0  0  0  0  0  0  0
   -4.3906    0.4591   -1.9693 C   0  0  0  0  0  0  0  0  0  0  0  0
   -4.5579    0.5175   -3.0423 H   0  0  0  0  0  0  0  0  0  0  0  0
   -5.4709    0.4902   -1.0709 C   0  0  0  0  0  0  0  0  0  0  0  0
   -6.4926    0.5701   -1.4267 H   0  0  0  0  0  0  0  0  0  0  0  0
   -5.1770    0.4190    0.3039 C   0  0  0  0  0  0  0  0  0  0  0  0
   -5.9693    0.4372    1.0469 H   0  0  0  0  0  0  0  0  0  0  0  0
   -3.8613    0.3250    0.7196 C   0  0  0  0  0  0  0  0  0  0  0  0
   -3.5877    0.2592    1.7688 H   0  0  0  0  0  0  0  0  0  0  0  0
    1.4241   -1.9669    0.0728 C   0  0  0  0  0  0  0  0  0  0  0  0
    1.5716   -1.8921    1.1566 H   0  0  0  0  0  0  0  0  0  0  0  0
    2.3011   -2.4672   -0.3644 H   0  0  0  0  0  0  0  0  0  0  0  0
    0.1785   -2.7933   -0.1456 C   0  0  0  0  0  0  0  0  0  0  0  0
    0.2359   -4.1711   -0.3601 C   0  0  0  0  0  0  0  0  0  0  0  0
    1.1995   -4.6665   -0.4384 H   0  0  0  0  0  0  0  0  0  0  0  0
   -0.9548   -4.8905   -0.4608 C   0  0  0  0  0  0  0  0  0  0  0  0
   -0.9378   -5.9648   -0.6217 H   0  0  0  0  0  0  0  0  0  0  0  0
   -2.1646   -4.2036   -0.3514 C   0  0  0  0  0  0  0  0  0  0  0  0
   -3.1170   -4.7200   -0.4192 H   0  0  0  0  0  0  0  0  0  0  0  0
   -2.1310   -2.8247   -0.1553 C   0  0  0  0  0  0  0  0  0  0  0  0
   -3.0405   -2.2396   -0.0674 H   0  0  0  0  0  0  0  0  0  0  0  0
    2.2871    0.3231    0.1504 C   0  0  0  0  0  0  0  0  0  0  0  0
    2.1214    0.3019    1.2321 H   0  0  0  0  0  0  0  0  0  0  0  0
    2.0453    1.3344   -0.1811 H   0  0  0  0  0  0  0  0  0  0  0  0
    3.7238   -0.0108   -0.1943 C   0  0  0  0  0  0  0  0  0  0  0  0
    4.3344    0.5379   -1.3311 C   0  0  0  0  0  0  0  0  0  0  0  0
    3.7804    1.2460   -1.9442 H   0  0  0  0  0  0  0  0  0  0  0  0
    5.6451    0.2019   -1.6755 C   0  0  0  0  0  0  0  0  0  0  0  0
    6.1024    0.6393   -2.5591 H   0  0  0  0  0  0  0  0  0  0  0  0
    6.3688   -0.6883   -0.8793 C   0  0  0  0  0  0  0  0  0  0  0  0
    7.3903   -0.9495   -1.1424 H   0  0  0  0  0  0  0  0  0  0  0  0
    5.7776   -1.2317    0.2641 C   0  0  0  0  0  0  0  0  0  0  0  0
    6.3400   -1.9137    0.8963 H   0  0  0  0  0  0  0  0  0  0  0  0
    4.4668   -0.8932    0.6029 C   0  0  0  0  0  0  0  0  0  0  0  0
    4.0141   -1.3083    1.5000 H   0  0  0  0  0  0  0  0  0  0  0  0
   -0.3318   -0.5424    2.9004 Br  0  0  0  0  0  0  0  0  0  0  0  0
  1 63  1  0  0  0  0
  2  1  9  0  0  0  0
  3 23  1  0  0  0  0
  3  1  9  0  0  0  0
  4 35  1  0  0  0  0
  4  1  9  0  0  0  0
  5  7  1  6  0  0  0
  5 13  1  0  0  0  0
  5  1  9  0  0  0  0
  6 37  1  0  0  0  0
  6 49  1  1  0  0  0
  6  1  9  0  0  0  0
  7  8  1  0  0  0  0
  7 10  1  0  0  0  0
  9  7  1  0  0  0  0
 10  6  1  0  0  0  0
 11 10  1  0  0  0  0
 12 10  1  0  0  0  0
 13 14  1  0  0  0  0
 13 16  1  0  0  0  0
 15 13  1  0  0  0  0
 16  3  2  0  0  0  0
 17 16  1  0  0  0  0
 17 19  2  0  0  0  0
 18 17  1  0  0  0  0
 19 21  1  0  0  0  0
 20 19  1  0  0  0  0
 21 22  1  0  0  0  0
 23 21  2  0  0  0  0
 23 24  1  0  0  0  0
 25  5  1  0  0  0  0
 25 28  1  0  0  0  0
 26 25  1  0  0  0  0
 27 25  1  0  0  0  0
 28  4  2  0  0  0  0
 29 28  1  0  0  0  0
 29 31  2  0  0  0  0
 30 29  1  0  0  0  0
 31 33  1  0  0  0  0
 32 31  1  0  0  0  0
 33 35  2  0  0  0  0
 33 34  1  0  0  0  0
 35 36  1  0  0  0  0
 37 38  1  0  0  0  0
 39 37  1  0  0  0  0
 40  2  1  0  0  0  0
 40 37  1  0  0  0  0
 41 40  2  0  0  0  0
 42 41  1  0  0  0  0
 43 41  1  0  0  0  0
 43 45  2  0  0  0  0
 44 43  1  0  0  0  0
 45 47  1  0  0  0  0
 46 45  1  0  0  0  0
 47 48  1  0  0  0  0
 47  2  2  0  0  0  0
 49 50  1  0  0  0  0
 51 49  1  0  0  0  0
 52 49  1  0  0  0  0
 52 61  2  0  0  0  0
 53 52  1  0  0  0  0
 54 53  1  0  0  0  0
 55 53  2  0  0  0  0
 55 57  1  0  0  0  0
 56 55  1  0  0  0  0
 57 59  2  0  0  0  0
 58 57  1  0  0  0  0
 59 61  1  0  0  0  0
 59 60  1  0  0  0  0
 61 62  1  0  0  0  0
M  END
$$$$
