
 OpenBabel02052520083D

 64 71  0  0  0  0  0  0  0  0999 V2000
    0.7968    0.0758   -0.8587 Fe  0  0  0  0  0  0  0  0  0  0  0  0
    1.0553   -2.1047   -0.6474 N   0  0  0  0  0  0  0  0  0  0  0  0
    0.2835    2.3239   -0.6686 N   0  0  0  0  0  0  0  0  0  0  0  0
    2.8029    0.2702   -0.2444 N   0  0  0  0  0  0  0  0  0  0  0  0
    0.8160    0.7671    1.5551 N   0  0  2  0  0  0  0  0  0  0  0  0
   -1.2388   -0.6688    0.0738 N   0  0  2  0  0  0  0  0  0  0  0  0
   -0.4760    0.4389    2.1654 C   0  0  0  0  0  0  0  0  0  0  0  0
   -1.1297    1.3059    2.0265 H   0  0  0  0  0  0  0  0  0  0  0  0
   -0.3862    0.2847    3.2551 H   0  0  0  0  0  0  0  0  0  0  0  0
   -1.1286   -0.7942    1.5343 C   0  0  0  0  0  0  0  0  0  0  0  0
   -0.5175   -1.6784    1.7350 H   0  0  0  0  0  0  0  0  0  0  0  0
   -2.1061   -0.9709    2.0100 H   0  0  0  0  0  0  0  0  0  0  0  0
    1.1130    2.2016    1.6066 C   0  0  0  0  0  0  0  0  0  0  0  0
    2.1890    2.3248    1.4431 H   0  0  0  0  0  0  0  0  0  0  0  0
    0.8871    2.6395    2.5935 H   0  0  0  0  0  0  0  0  0  0  0  0
    0.3823    2.9566    0.5130 C   0  0  0  0  0  0  0  0  0  0  0  0
   -0.1266    4.2424    0.7042 C   0  0  0  0  0  0  0  0  0  0  0  0
   -0.0457    4.7196    1.6769 H   0  0  0  0  0  0  0  0  0  0  0  0
   -0.7360    4.8941   -0.3699 C   0  0  0  0  0  0  0  0  0  0  0  0
   -1.1402    5.8953   -0.2460 H   0  0  0  0  0  0  0  0  0  0  0  0
   -0.8228    4.2374   -1.5973 C   0  0  0  0  0  0  0  0  0  0  0  0
   -1.2907    4.7069   -2.4569 H   0  0  0  0  0  0  0  0  0  0  0  0
   -0.3033    2.9461   -1.7017 C   0  0  0  0  0  0  0  0  0  0  0  0
   -0.3540    2.3431   -2.6051 H   0  0  0  0  0  0  0  0  0  0  0  0
    1.9366   -0.0770    1.9930 C   0  0  0  0  0  0  0  0  0  0  0  0
    1.5977   -1.1167    1.9093 H   0  0  0  0  0  0  0  0  0  0  0  0
    2.2184    0.1057    3.0449 H   0  0  0  0  0  0  0  0  0  0  0  0
    3.1233    0.1180    1.0794 C   0  0  0  0  0  0  0  0  0  0  0  0
    4.4308    0.1077    1.5348 C   0  0  0  0  0  0  0  0  0  0  0  0
    4.6205   -0.0006    2.6001 H   0  0  0  0  0  0  0  0  0  0  0  0
    5.4942    0.2245    0.6222 C   0  0  0  0  0  0  0  0  0  0  0  0
    6.5256    0.2118    0.9581 H   0  0  0  0  0  0  0  0  0  0  0  0
    5.1678    0.3621   -0.7419 C   0  0  0  0  0  0  0  0  0  0  0  0
    5.9438    0.4588   -1.4961 H   0  0  0  0  0  0  0  0  0  0  0  0
    3.8398    0.3881   -1.1254 C   0  0  0  0  0  0  0  0  0  0  0  0
    3.5472    0.5029   -2.1656 H   0  0  0  0  0  0  0  0  0  0  0  0
   -1.3587   -1.9843   -0.5904 C   0  0  0  0  0  0  0  0  0  0  0  0
   -1.4741   -1.7603   -1.6577 H   0  0  0  0  0  0  0  0  0  0  0  0
   -2.2412   -2.5467   -0.2513 H   0  0  0  0  0  0  0  0  0  0  0  0
   -0.1006   -2.7912   -0.3960 C   0  0  0  0  0  0  0  0  0  0  0  0
   -0.1140   -4.1229   -0.0074 C   0  0  0  0  0  0  0  0  0  0  0  0
   -1.0654   -4.6085    0.1953 H   0  0  0  0  0  0  0  0  0  0  0  0
    1.0939   -4.8272    0.1090 C   0  0  0  0  0  0  0  0  0  0  0  0
    1.1070   -5.8706    0.4074 H   0  0  0  0  0  0  0  0  0  0  0  0
    2.2829   -4.1327   -0.1736 C   0  0  0  0  0  0  0  0  0  0  0  0
    3.2496   -4.6236   -0.1069 H   0  0  0  0  0  0  0  0  0  0  0  0
    2.2198   -2.7980   -0.5391 C   0  0  0  0  0  0  0  0  0  0  0  0
    3.1191   -2.2283   -0.7480 H   0  0  0  0  0  0  0  0  0  0  0  0
   -2.2698    0.2919   -0.3967 C   0  0  0  0  0  0  0  0  0  0  0  0
   -2.0961    0.3878   -1.4730 H   0  0  0  0  0  0  0  0  0  0  0  0
   -2.0341    1.2636    0.0431 H   0  0  0  0  0  0  0  0  0  0  0  0
   -3.7014   -0.0889   -0.0811 C   0  0  0  0  0  0  0  0  0  0  0  0
   -4.3141    0.3402    1.1049 C   0  0  0  0  0  0  0  0  0  0  0  0
   -3.7651    0.9924    1.7815 H   0  0  0  0  0  0  0  0  0  0  0  0
   -5.6186   -0.0440    1.4211 C   0  0  0  0  0  0  0  0  0  0  0  0
   -6.0766    0.3009    2.3447 H   0  0  0  0  0  0  0  0  0  0  0  0
   -6.3353   -0.8644    0.5474 C   0  0  0  0  0  0  0  0  0  0  0  0
   -7.3518   -1.1636    0.7890 H   0  0  0  0  0  0  0  0  0  0  0  0
   -5.7424   -1.2897   -0.6441 C   0  0  0  0  0  0  0  0  0  0  0  0
   -6.2984   -1.9181   -1.3350 H   0  0  0  0  0  0  0  0  0  0  0  0
   -4.4379   -0.9025   -0.9540 C   0  0  0  0  0  0  0  0  0  0  0  0
   -3.9828   -1.2268   -1.8866 H   0  0  0  0  0  0  0  0  0  0  0  0
    0.0475    0.1957   -2.6315 O   0  0  0  0  0  0  0  0  0  0  0  0
    0.2306   -0.5764   -3.1853 H   0  0  0  0  0  0  0  0  0  0  0  0
  2 47  2  0  0  0  0
  2 40  1  0  0  0  0
  2  1  9  0  0  0  0
  3 16  1  0  0  0  0
  3  1  9  0  0  0  0
  4 28  1  0  0  0  0
  4  1  9  0  0  0  0
  5 13  1  1  0  0  0
  5 25  1  0  0  0  0
  5  7  1  0  0  0  0
  5  1  9  0  0  0  0
  6 49  1  6  0  0  0
  6 10  1  0  0  0  0
  6  1  9  0  0  0  0
  7  9  1  0  0  0  0
  8  7  1  0  0  0  0
 10 11  1  0  0  0  0
 10 12  1  0  0  0  0
 10  7  1  0  0  0  0
 13 15  1  0  0  0  0
 14 13  1  0  0  0  0
 16 17  2  0  0  0  0
 16 13  1  0  0  0  0
 17 18  1  0  0  0  0
 19 20  1  0  0  0  0
 19 17  1  0  0  0  0
 21 19  2  0  0  0  0
 22 21  1  0  0  0  0
 23 21  1  0  0  0  0
 23  3  2  0  0  0  0
 24 23  1  0  0  0  0
 25 27  1  0  0  0  0
 26 25  1  0  0  0  0
 28 29  2  0  0  0  0
 28 25  1  0  0  0  0
 29 30  1  0  0  0  0
 31 32  1  0  0  0  0
 31 29  1  0  0  0  0
 33 31  2  0  0  0  0
 34 33  1  0  0  0  0
 35 33  1  0  0  0  0
 35  4  2  0  0  0  0
 36 35  1  0  0  0  0
 37 40  1  0  0  0  0
 37 39  1  0  0  0  0
 37  6  1  0  0  0  0
 38 37  1  0  0  0  0
 40 41  2  0  0  0  0
 41 43  1  0  0  0  0
 41 42  1  0  0  0  0
 43 44  1  0  0  0  0
 45 46  1  0  0  0  0
 45 43  2  0  0  0  0
 47 45  1  0  0  0  0
 48 47  1  0  0  0  0
 49 52  1  0  0  0  0
 49 51  1  0  0  0  0
 50 49  1  0  0  0  0
 52 53  2  0  0  0  0
 53 55  1  0  0  0  0
 53 54  1  0  0  0  0
 55 56  1  0  0  0  0
 57 58  1  0  0  0  0
 57 55  2  0  0  0  0
 59 57  1  0  0  0  0
 60 59  1  0  0  0  0
 61 59  2  0  0  0  0
 61 52  1  0  0  0  0
 62 61  1  0  0  0  0
 63  1  1  0  0  0  0
 64 63  1  0  0  0  0
M  END
$$$$
