
 OpenBabel02052520083D

 62 66  0  0  0  0  0  0  0  0999 V2000
   -0.3541   -0.0310    0.0505 Fe  0  2  0  0  0  0  0  0  0  0  0  0
    0.9269    1.1222   -1.3561 N   0  0  1  0  0  0  0  0  0  0  0  0
    0.7992    0.3857   -2.6796 C   0  0  0  0  0  0  0  0  0  0  0  0
    0.6437    1.1144   -3.4817 H   0  0  0  0  0  0  0  0  0  0  0  0
    1.7588   -0.0955   -2.8762 H   0  0  0  0  0  0  0  0  0  0  0  0
   -0.3198   -0.6684   -2.7584 C   0  0  0  0  0  0  0  0  0  0  0  0
   -1.2879   -0.1859   -2.8665 H   0  0  0  0  0  0  0  0  0  0  0  0
   -0.1471   -1.2786   -3.6553 H   0  0  0  0  0  0  0  0  0  0  0  0
   -0.3745   -1.5440   -1.5432 N   0  0  2  0  0  0  0  0  0  0  0  0
   -1.6631   -2.3220   -1.4821 C   0  0  0  0  0  0  0  0  0  0  0  0
   -1.6240   -3.1066   -2.2488 H   0  0  0  0  0  0  0  0  0  0  0  0
   -2.4703   -1.6416   -1.7482 H   0  0  0  0  0  0  0  0  0  0  0  0
   -1.9674   -2.9764   -0.1239 C   0  0  0  0  0  0  0  0  0  0  0  0
   -1.2101   -3.7247    0.1281 H   0  0  0  0  0  0  0  0  0  0  0  0
   -2.8862   -3.5539   -0.2815 H   0  0  0  0  0  0  0  0  0  0  0  0
   -2.2639   -2.0697    1.0863 C   0  0  0  0  0  0  0  0  0  0  0  0
   -3.0277   -1.3351    0.8306 H   0  0  0  0  0  0  0  0  0  0  0  0
   -2.6578   -2.7001    1.8945 H   0  0  0  0  0  0  0  0  0  0  0  0
   -1.0826   -1.3107    1.6461 N   0  0  2  0  0  0  0  0  0  0  0  0
   -1.4932   -0.3899    2.7790 C   0  0  0  0  0  0  0  0  0  0  0  0
   -2.4821   -0.6817    3.1462 H   0  0  0  0  0  0  0  0  0  0  0  0
   -0.7931   -0.5545    3.5993 H   0  0  0  0  0  0  0  0  0  0  0  0
   -1.5306    1.1021    2.4148 C   0  0  0  0  0  0  0  0  0  0  0  0
   -2.4235    1.3281    1.8364 H   0  0  0  0  0  0  0  0  0  0  0  0
   -1.5743    1.6875    3.3428 H   0  0  0  0  0  0  0  0  0  0  0  0
   -0.3437    1.5252    1.5988 N   0  0  2  0  0  0  0  0  0  0  0  0
   -0.5624    2.8953    1.0180 C   0  0  0  0  0  0  0  0  0  0  0  0
   -0.4867    3.6263    1.8341 H   0  0  0  0  0  0  0  0  0  0  0  0
   -1.5826    2.9294    0.6401 H   0  0  0  0  0  0  0  0  0  0  0  0
    0.4103    3.3170   -0.0971 C   0  0  0  0  0  0  0  0  0  0  0  0
    1.4239    3.4253    0.3044 H   0  0  0  0  0  0  0  0  0  0  0  0
    0.1182    4.3399   -0.3645 H   0  0  0  0  0  0  0  0  0  0  0  0
    0.4244    2.5438   -1.4311 C   0  0  0  0  0  0  0  0  0  0  0  0
   -0.5806    2.4965   -1.8493 H   0  0  0  0  0  0  0  0  0  0  0  0
    1.0595    3.0923   -2.1399 H   0  0  0  0  0  0  0  0  0  0  0  0
    2.3449    1.0994   -0.9138 C   0  0  0  0  0  0  0  0  0  0  0  0
    2.5703    2.0045   -0.3462 H   0  0  0  0  0  0  0  0  0  0  0  0
    3.0177    1.1016   -1.7759 H   0  0  0  0  0  0  0  0  0  0  0  0
    2.5864   -0.0871    0.0091 C   0  0  0  0  0  0  0  0  0  0  0  0
    1.5660   -0.6285    0.5339 O   0  0  0  0  0  0  0  0  0  0  0  0
    3.8140   -0.5063    0.2745 N   0  0  0  0  0  0  0  0  0  0  0  0
    5.0370    0.1260   -0.2513 C   0  0  0  0  0  0  0  0  0  0  0  0
    4.8572    1.1517   -0.5710 H   0  0  0  0  0  0  0  0  0  0  0  0
    5.4351   -0.4591   -1.0864 H   0  0  0  0  0  0  0  0  0  0  0  0
    5.7812    0.1487    0.5483 H   0  0  0  0  0  0  0  0  0  0  0  0
    4.0393   -1.6646    1.1567 C   0  0  0  0  0  0  0  0  0  0  0  0
    4.7774   -2.3212    0.6888 H   0  0  0  0  0  0  0  0  0  0  0  0
    3.1066   -2.2045    1.3043 H   0  0  0  0  0  0  0  0  0  0  0  0
    4.4272   -1.3226    2.1214 H   0  0  0  0  0  0  0  0  0  0  0  0
    0.7717   -2.4911   -1.5534 C   0  0  0  0  0  0  0  0  0  0  0  0
    0.6614   -3.2036   -2.3798 H   0  0  0  0  0  0  0  0  0  0  0  0
    0.8196   -3.0374   -0.6138 H   0  0  0  0  0  0  0  0  0  0  0  0
    1.7106   -1.9551   -1.6761 H   0  0  0  0  0  0  0  0  0  0  0  0
   -0.0751   -2.2754    2.1722 C   0  0  0  0  0  0  0  0  0  0  0  0
   -0.5277   -2.9039    2.9484 H   0  0  0  0  0  0  0  0  0  0  0  0
    0.7713   -1.7316    2.5862 H   0  0  0  0  0  0  0  0  0  0  0  0
    0.2961   -2.9089    1.3708 H   0  0  0  0  0  0  0  0  0  0  0  0
    0.8789    1.5167    2.4426 C   0  0  0  0  0  0  0  0  0  0  0  0
    0.7497    2.1808    3.3060 H   0  0  0  0  0  0  0  0  0  0  0  0
    1.7344    1.8627    1.8641 H   0  0  0  0  0  0  0  0  0  0  0  0
    1.0933    0.5071    2.7876 H   0  0  0  0  0  0  0  0  0  0  0  0
   -2.5558    0.8712   -0.7935 Br  0  0  0  0  0  0  0  0  0  0  0  0
  2  3  1  6  0  0  0
  2 36  1  0  0  0  0
  2  1  9  0  0  0  0
  4  3  1  0  0  0  0
  5  3  1  0  0  0  0
  6  3  1  0  0  0  0
  6  9  1  0  0  0  0
  7  6  1  0  0  0  0
  8  6  1  0  0  0  0
  9 50  1  1  0  0  0
  9 10  1  0  0  0  0
  9  1  9  0  0  0  0
 10 13  1  0  0  0  0
 11 10  1  0  0  0  0
 12 10  1  0  0  0  0
 13 14  1  0  0  0  0
 13 16  1  0  0  0  0
 15 13  1  0  0  0  0
 16 19  1  0  0  0  0
 16 18  1  0  0  0  0
 17 16  1  0  0  0  0
 19 54  1  1  0  0  0
 19 20  1  0  0  0  0
 19  1  9  0  0  0  0
 20 21  1  0  0  0  0
 20 22  1  0  0  0  0
 23 20  1  0  0  0  0
 23 25  1  0  0  0  0
 24 23  1  0  0  0  0
 26 23  1  0  0  0  0
 26 58  1  1  0  0  0
 26  1  9  0  0  0  0
 27 26  1  0  0  0  0
 27 28  1  0  0  0  0
 29 27  1  0  0  0  0
 30 31  1  0  0  0  0
 30 27  1  0  0  0  0
 32 30  1  0  0  0  0
 33  2  1  0  0  0  0
 33 30  1  0  0  0  0
 34 33  1  0  0  0  0
 35 33  1  0  0  0  0
 36 37  1  0  0  0  0
 36 39  1  0  0  0  0
 38 36  1  0  0  0  0
 39 41  1  0  0  0  0
 39 40  2  0  0  0  0
 40  1  9  0  0  0  0
 41 46  1  0  0  0  0
 42 41  1  0  0  0  0
 42 45  1  0  0  0  0
 43 42  1  0  0  0  0
 44 42  1  0  0  0  0
 46 48  1  0  0  0  0
 46 49  1  0  0  0  0
 47 46  1  0  0  0  0
 50 52  1  0  0  0  0
 51 50  1  0  0  0  0
 53 50  1  0  0  0  0
 54 56  1  0  0  0  0
 54 55  1  0  0  0  0
 57 54  1  0  0  0  0
 58 61  1  0  0  0  0
 58 59  1  0  0  0  0
 60 58  1  0  0  0  0
 62  1  1  0  0  0  0
M  CHG  1   1   2
M  END
$$$$
