
 OpenBabel02052520083D

 54 60  0  0  0  0  0  0  0  0999 V2000
   -0.0060   -0.7516   -0.4066 Fe  0  2  0  0  0  0  0  0  0  0  0  0
    1.9892   -0.8383   -0.2089 N   0  0  0  0  0  0  0  0  0  0  0  0
    2.6978   -1.7601    0.4765 C   0  0  0  0  0  0  0  0  0  0  0  0
    2.1266   -2.4918    1.0318 H   0  0  0  0  0  0  0  0  0  0  0  0
    4.0876   -1.7675    0.4586 C   0  0  0  0  0  0  0  0  0  0  0  0
    4.6222   -2.5254    1.0208 H   0  0  0  0  0  0  0  0  0  0  0  0
    4.7625   -0.8004   -0.2879 C   0  0  0  0  0  0  0  0  0  0  0  0
    5.8476   -0.7833   -0.3189 H   0  0  0  0  0  0  0  0  0  0  0  0
    4.0225    0.1482   -0.9974 C   0  0  0  0  0  0  0  0  0  0  0  0
    4.5128    0.9133   -1.5906 H   0  0  0  0  0  0  0  0  0  0  0  0
    2.6345    0.0971   -0.9478 C   0  0  0  0  0  0  0  0  0  0  0  0
    1.7427    1.0141   -1.7309 C   0  0  0  0  0  0  0  0  0  0  0  0
    2.2084    1.9922   -1.8863 H   0  0  0  0  0  0  0  0  0  0  0  0
    1.5343    0.5689   -2.7077 H   0  0  0  0  0  0  0  0  0  0  0  0
    0.4376    1.1569   -1.0150 N   0  0  1  0  0  0  0  0  0  0  0  0
   -0.5731    1.8579   -1.8771 C   0  0  0  0  0  0  0  0  0  0  0  0
   -1.5572    1.6778   -1.4443 H   0  0  0  0  0  0  0  0  0  0  0  0
   -0.5561    1.4313   -2.8806 H   0  0  0  0  0  0  0  0  0  0  0  0
   -0.1920    3.3419   -1.7822 C   0  0  0  0  0  0  0  0  0  0  0  0
   -1.0579    3.9817   -1.9656 H   0  0  0  0  0  0  0  0  0  0  0  0
    0.5596    3.5984   -2.5337 H   0  0  0  0  0  0  0  0  0  0  0  0
    0.3768    3.5052   -0.3453 C   0  0  0  0  0  0  0  0  0  0  0  0
   -0.3184    4.0450    0.3041 H   0  0  0  0  0  0  0  0  0  0  0  0
    1.3110    4.0707   -0.3443 H   0  0  0  0  0  0  0  0  0  0  0  0
    0.5925    2.0623    0.1885 C   0  0  1  0  0  0  0  0  0  0  0  0
    1.5973    1.9101    0.5895 H   0  0  0  0  0  0  0  0  0  0  0  0
   -0.4360    1.6614    1.2411 C   0  0  2  0  0  0  0  0  0  0  0  0
   -1.4351    1.9152    0.8792 H   0  0  0  0  0  0  0  0  0  0  0  0
   -0.1394    2.2733    2.6385 C   0  0  0  0  0  0  0  0  0  0  0  0
    0.6403    3.0360    2.5548 H   0  0  0  0  0  0  0  0  0  0  0  0
   -1.0211    2.7691    3.0501 H   0  0  0  0  0  0  0  0  0  0  0  0
    0.3205    1.0873    3.5293 C   0  0  0  0  0  0  0  0  0  0  0  0
    1.2051    1.3283    4.1230 H   0  0  0  0  0  0  0  0  0  0  0  0
   -0.4648    0.7930    4.2309 H   0  0  0  0  0  0  0  0  0  0  0  0
    0.6149   -0.0412    2.5342 C   0  0  0  0  0  0  0  0  0  0  0  0
    0.5296   -1.0546    2.9282 H   0  0  0  0  0  0  0  0  0  0  0  0
    1.6062    0.0761    2.0967 H   0  0  0  0  0  0  0  0  0  0  0  0
   -0.3929    0.1559    1.4327 N   0  0  2  0  0  0  0  0  0  0  0  0
   -1.7460   -0.3265    1.8661 C   0  0  0  0  0  0  0  0  0  0  0  0
   -2.1627    0.3368    2.6301 H   0  0  0  0  0  0  0  0  0  0  0  0
   -1.6266   -1.3213    2.3026 H   0  0  0  0  0  0  0  0  0  0  0  0
   -2.6402   -0.4153    0.6662 C   0  0  0  0  0  0  0  0  0  0  0  0
   -4.0286   -0.3663    0.7256 C   0  0  0  0  0  0  0  0  0  0  0  0
   -4.5218   -0.1989    1.6777 H   0  0  0  0  0  0  0  0  0  0  0  0
   -4.7643   -0.5522   -0.4464 C   0  0  0  0  0  0  0  0  0  0  0  0
   -5.8493   -0.5290   -0.4206 H   0  0  0  0  0  0  0  0  0  0  0  0
   -4.0872   -0.7717   -1.6477 C   0  0  0  0  0  0  0  0  0  0  0  0
   -4.6206   -0.9280   -2.5789 H   0  0  0  0  0  0  0  0  0  0  0  0
   -2.6978   -0.7953   -1.6434 C   0  0  0  0  0  0  0  0  0  0  0  0
   -2.1124   -0.9633   -2.5384 H   0  0  0  0  0  0  0  0  0  0  0  0
   -1.9987   -0.6084   -0.5071 N   0  0  0  0  0  0  0  0  0  0  0  0
    0.0951   -1.2503   -2.0831 O   0  0  0  0  0  0  0  0  0  0  0  0
    0.1788   -2.2219   -2.1650 H   0  0  0  0  0  0  0  0  0  0  0  0
   -0.3125   -2.8035    0.4452 Cl  0  0  0  0  0  0  0  0  0  0  0  0
  1 54  1  0  0  0  0
  2  3  1  0  0  0  0
  2  1  9  0  0  0  0
  3  4  1  0  0  0  0
  5  3  2  0  0  0  0
  5  6  1  0  0  0  0
  7  5  1  0  0  0  0
  8  7  1  0  0  0  0
  9 11  1  0  0  0  0
  9  7  2  0  0  0  0
 10  9  1  0  0  0  0
 11  2  2  0  0  0  0
 12 15  1  0  0  0  0
 12 11  1  0  0  0  0
 13 12  1  0  0  0  0
 14 12  1  0  0  0  0
 15 16  1  6  0  0  0
 15 25  1  0  0  0  0
 15  1  9  0  0  0  0
 16 19  1  0  0  0  0
 16 17  1  0  0  0  0
 18 16  1  0  0  0  0
 19 22  1  0  0  0  0
 20 19  1  0  0  0  0
 21 19  1  0  0  0  0
 22 24  1  0  0  0  0
 22 25  1  0  0  0  0
 22 23  1  0  0  0  0
 25 26  1  1  0  0  0
 25 27  1  0  0  0  0
 27 28  1  6  0  0  0
 27 38  1  0  0  0  0
 27 29  1  0  0  0  0
 29 31  1  0  0  0  0
 29 32  1  0  0  0  0
 30 29  1  0  0  0  0
 32 33  1  0  0  0  0
 32 34  1  0  0  0  0
 35 36  1  0  0  0  0
 35 32  1  0  0  0  0
 37 35  1  0  0  0  0
 38 39  1  1  0  0  0
 38 35  1  0  0  0  0
 38  1  9  0  0  0  0
 39 41  1  0  0  0  0
 39 40  1  0  0  0  0
 42 43  1  0  0  0  0
 42 39  1  0  0  0  0
 43 44  1  0  0  0  0
 45 46  1  0  0  0  0
 45 43  2  0  0  0  0
 47 49  2  0  0  0  0
 47 45  1  0  0  0  0
 48 47  1  0  0  0  0
 49 51  1  0  0  0  0
 50 49  1  0  0  0  0
 51 42  2  0  0  0  0
 51  1  9  0  0  0  0
 52  1  1  0  0  0  0
 53 52  1  0  0  0  0
M  CHG  1   1   2
M  END
$$$$
