
 OpenBabel02052520083D

 56 62  0  0  0  0  0  0  0  0999 V2000
    0.0616    0.3609   -0.5394 Fe  0  2  0  0  0  0  0  0  0  0  0  0
   -1.7275    1.2004   -0.3411 N   0  0  0  0  0  0  0  0  0  0  0  0
   -1.9923    2.4117    0.1893 C   0  0  0  0  0  0  0  0  0  0  0  0
   -1.1499    2.9452    0.6089 H   0  0  0  0  0  0  0  0  0  0  0  0
   -3.2764    2.9401    0.1965 C   0  0  0  0  0  0  0  0  0  0  0  0
   -3.4529    3.9178    0.6312 H   0  0  0  0  0  0  0  0  0  0  0  0
   -4.3162    2.1925   -0.3626 C   0  0  0  0  0  0  0  0  0  0  0  0
   -5.3308    2.5787   -0.3700 H   0  0  0  0  0  0  0  0  0  0  0  0
   -4.0354    0.9407   -0.9121 C   0  0  0  0  0  0  0  0  0  0  0  0
   -4.8186    0.3349   -1.3561 H   0  0  0  0  0  0  0  0  0  0  0  0
   -2.7246    0.4744   -0.8961 C   0  0  0  0  0  0  0  0  0  0  0  0
   -2.2876   -0.8159   -1.5242 C   0  0  0  0  0  0  0  0  0  0  0  0
   -3.0835   -1.5662   -1.4938 H   0  0  0  0  0  0  0  0  0  0  0  0
   -2.0205   -0.6282   -2.5674 H   0  0  0  0  0  0  0  0  0  0  0  0
   -1.0542   -1.3059   -0.8296 N   0  0  1  0  0  0  0  0  0  0  0  0
   -0.4442   -2.4465   -1.5935 C   0  0  0  0  0  0  0  0  0  0  0  0
    0.5688   -2.5875   -1.2161 H   0  0  0  0  0  0  0  0  0  0  0  0
   -0.3823   -2.1854   -2.6502 H   0  0  0  0  0  0  0  0  0  0  0  0
   -1.3239   -3.6564   -1.2576 C   0  0  0  0  0  0  0  0  0  0  0  0
   -0.7734   -4.5922   -1.3771 H   0  0  0  0  0  0  0  0  0  0  0  0
   -2.1886   -3.7079   -1.9251 H   0  0  0  0  0  0  0  0  0  0  0  0
   -1.7647   -3.4089    0.2103 C   0  0  0  0  0  0  0  0  0  0  0  0
   -1.2242   -4.0592    0.9046 H   0  0  0  0  0  0  0  0  0  0  0  0
   -2.8281   -3.6127    0.3530 H   0  0  0  0  0  0  0  0  0  0  0  0
   -1.4284   -1.9200    0.5031 C   0  0  1  0  0  0  0  0  0  0  0  0
   -2.2899   -1.3702    0.8905 H   0  0  0  0  0  0  0  0  0  0  0  0
   -0.2589   -1.7562    1.4708 C   0  0  2  0  0  0  0  0  0  0  0  0
    0.5689   -2.3866    1.1370 H   0  0  0  0  0  0  0  0  0  0  0  0
   -0.6554   -2.0355    2.9469 C   0  0  0  0  0  0  0  0  0  0  0  0
   -1.6434   -2.5029    2.9890 H   0  0  0  0  0  0  0  0  0  0  0  0
    0.0406   -2.7307    3.4213 H   0  0  0  0  0  0  0  0  0  0  0  0
   -0.6512   -0.6520    3.6515 C   0  0  0  0  0  0  0  0  0  0  0  0
   -1.5356   -0.4951    4.2729 H   0  0  0  0  0  0  0  0  0  0  0  0
    0.2201   -0.5450    4.3038 H   0  0  0  0  0  0  0  0  0  0  0  0
   -0.5977    0.3566    2.4972 C   0  0  0  0  0  0  0  0  0  0  0  0
   -0.1541    1.3231    2.7445 H   0  0  0  0  0  0  0  0  0  0  0  0
   -1.5930    0.5340    2.0894 H   0  0  0  0  0  0  0  0  0  0  0  0
    0.2162   -0.3183    1.4289 N   0  0  2  0  0  0  0  0  0  0  0  0
    1.6729   -0.2608    1.7657 C   0  0  0  0  0  0  0  0  0  0  0  0
    1.8998   -0.8661    2.6492 H   0  0  0  0  0  0  0  0  0  0  0  0
    1.9195    0.7787    2.0021 H   0  0  0  0  0  0  0  0  0  0  0  0
    2.4726   -0.7108    0.5759 C   0  0  0  0  0  0  0  0  0  0  0  0
    3.7512   -1.2526    0.6573 C   0  0  0  0  0  0  0  0  0  0  0  0
    4.2105   -1.4141    1.6273 H   0  0  0  0  0  0  0  0  0  0  0  0
    4.4250   -1.5738   -0.5230 C   0  0  0  0  0  0  0  0  0  0  0  0
    5.4256   -1.9931   -0.4850 H   0  0  0  0  0  0  0  0  0  0  0  0
    3.7946   -1.3501   -1.7488 C   0  0  0  0  0  0  0  0  0  0  0  0
    4.2848   -1.5834   -2.6877 H   0  0  0  0  0  0  0  0  0  0  0  0
    2.5102   -0.8177   -1.7582 C   0  0  0  0  0  0  0  0  0  0  0  0
    1.9590   -0.6206   -2.6695 H   0  0  0  0  0  0  0  0  0  0  0  0
    1.8670   -0.5148   -0.6146 N   0  0  0  0  0  0  0  0  0  0  0  0
    0.0217    0.5527   -2.3083 O   0  0  0  0  0  0  0  0  0  0  0  0
    0.3443    1.4281   -2.5882 H   0  0  0  0  0  0  0  0  0  0  0  0
    0.9635    1.9756   -0.1920 N   0  0  0  0  0  0  0  0  0  0  0  0
    1.6823    2.9123   -0.0371 C   0  0  0  0  0  0  0  0  0  0  0  0
    2.6303    4.1948    0.1738 S   0  0  0  0  0  0  0  0  0  0  0  0
  1 54  1  0  0  0  0
  2  3  1  0  0  0  0
  2  1  9  0  0  0  0
  3  5  2  0  0  0  0
  3  4  1  0  0  0  0
  5  6  1  0  0  0  0
  7  5  1  0  0  0  0
  8  7  1  0  0  0  0
  9 11  1  0  0  0  0
  9  7  2  0  0  0  0
 10  9  1  0  0  0  0
 11  2  2  0  0  0  0
 12 13  1  0  0  0  0
 12 11  1  0  0  0  0
 12 15  1  0  0  0  0
 14 12  1  0  0  0  0
 15 16  1  6  0  0  0
 15 25  1  0  0  0  0
 15  1  9  0  0  0  0
 16 19  1  0  0  0  0
 16 17  1  0  0  0  0
 18 16  1  0  0  0  0
 19 22  1  0  0  0  0
 20 19  1  0  0  0  0
 21 19  1  0  0  0  0
 22 24  1  0  0  0  0
 22 25  1  0  0  0  0
 22 23  1  0  0  0  0
 25 26  1  1  0  0  0
 25 27  1  0  0  0  0
 27 28  1  6  0  0  0
 27 29  1  0  0  0  0
 29 30  1  0  0  0  0
 29 31  1  0  0  0  0
 29 32  1  0  0  0  0
 32 33  1  0  0  0  0
 32 34  1  0  0  0  0
 35 36  1  0  0  0  0
 35 32  1  0  0  0  0
 37 35  1  0  0  0  0
 38 27  1  0  0  0  0
 38 39  1  1  0  0  0
 38 35  1  0  0  0  0
 38  1  9  0  0  0  0
 39 41  1  0  0  0  0
 39 40  1  0  0  0  0
 42 43  1  0  0  0  0
 42 39  1  0  0  0  0
 43 44  1  0  0  0  0
 45 46  1  0  0  0  0
 45 43  2  0  0  0  0
 47 45  1  0  0  0  0
 48 47  1  0  0  0  0
 49 47  2  0  0  0  0
 49 51  1  0  0  0  0
 50 49  1  0  0  0  0
 51 42  2  0  0  0  0
 51  1  9  0  0  0  0
 52  1  1  0  0  0  0
 53 52  1  0  0  0  0
 54 55  2  0  0  0  0
 55 56  2  0  0  0  0
M  CHG  1   1   2
M  END
$$$$
