
 OpenBabel02072512503D

 56 61  0  0  0  0  0  0  0  0999 V2000
    0.0236    0.8052   -0.2817 Fe  0  2  0  0  0  0  0  0  0  0  0  0
   -2.2054    0.8981   -0.0224 N   0  0  0  0  0  0  0  0  0  0  0  0
   -2.9034    1.7202    0.7829 C   0  0  0  0  0  0  0  0  0  0  0  0
   -2.3156    2.3612    1.4318 H   0  0  0  0  0  0  0  0  0  0  0  0
   -4.2944    1.7397    0.7822 C   0  0  0  0  0  0  0  0  0  0  0  0
   -4.8280    2.4157    1.4416 H   0  0  0  0  0  0  0  0  0  0  0  0
   -4.9753    0.8747   -0.0786 C   0  0  0  0  0  0  0  0  0  0  0  0
   -6.0607    0.8610   -0.0997 H   0  0  0  0  0  0  0  0  0  0  0  0
   -4.2460    0.0246   -0.9140 C   0  0  0  0  0  0  0  0  0  0  0  0
   -4.7474   -0.6556   -1.5952 H   0  0  0  0  0  0  0  0  0  0  0  0
   -2.8554    0.0719   -0.8656 C   0  0  0  0  0  0  0  0  0  0  0  0
   -1.9660   -0.7274   -1.7843 C   0  0  0  0  0  0  0  0  0  0  0  0
   -2.4557   -1.6536   -2.1034 H   0  0  0  0  0  0  0  0  0  0  0  0
   -1.7448   -0.1335   -2.6765 H   0  0  0  0  0  0  0  0  0  0  0  0
   -0.6542   -1.0294   -1.1349 N   0  0  1  0  0  0  0  0  0  0  0  0
    0.3032   -1.6314   -2.1246 C   0  0  0  0  0  0  0  0  0  0  0  0
    1.3070   -1.5270   -1.7130 H   0  0  0  0  0  0  0  0  0  0  0  0
    0.2607   -1.0722   -3.0597 H   0  0  0  0  0  0  0  0  0  0  0  0
   -0.1141   -3.1090   -2.2184 C   0  0  0  0  0  0  0  0  0  0  0  0
    0.7427   -3.7400   -2.4645 H   0  0  0  0  0  0  0  0  0  0  0  0
   -0.8546   -3.2522   -3.0097 H   0  0  0  0  0  0  0  0  0  0  0  0
   -0.7196   -3.4423   -0.8247 C   0  0  0  0  0  0  0  0  0  0  0  0
   -0.1008   -4.1535   -0.2707 H   0  0  0  0  0  0  0  0  0  0  0  0
   -1.7092   -3.8951   -0.9181 H   0  0  0  0  0  0  0  0  0  0  0  0
   -0.7971   -2.0896   -0.0665 C   0  0  1  0  0  0  0  0  0  0  0  0
   -1.7616   -1.9382    0.4233 H   0  0  0  0  0  0  0  0  0  0  0  0
    0.3258   -1.9356    0.9627 C   0  0  2  0  0  0  0  0  0  0  0  0
    1.2780   -2.2092    0.5027 H   0  0  0  0  0  0  0  0  0  0  0  0
    0.0444   -2.7329    2.2657 C   0  0  0  0  0  0  0  0  0  0  0  0
   -0.7350   -3.4800    2.0915 H   0  0  0  0  0  0  0  0  0  0  0  0
    0.9329   -3.2779    2.5919 H   0  0  0  0  0  0  0  0  0  0  0  0
   -0.3938   -1.6771    3.3200 C   0  0  0  0  0  0  0  0  0  0  0  0
   -1.3253   -1.9478    3.8219 H   0  0  0  0  0  0  0  0  0  0  0  0
    0.3667   -1.5617    4.0969 H   0  0  0  0  0  0  0  0  0  0  0  0
   -0.5585   -0.3732    2.5224 C   0  0  0  0  0  0  0  0  0  0  0  0
   -0.3707    0.5436    3.0826 H   0  0  0  0  0  0  0  0  0  0  0  0
   -1.5519   -0.3031    2.0788 H   0  0  0  0  0  0  0  0  0  0  0  0
    0.4294   -0.4884    1.3959 N   0  0  2  0  0  0  0  0  0  0  0  0
    1.8126   -0.1721    1.8688 C   0  0  0  0  0  0  0  0  0  0  0  0
    2.1555   -0.9332    2.5778 H   0  0  0  0  0  0  0  0  0  0  0  0
    1.7577    0.7824    2.4021 H   0  0  0  0  0  0  0  0  0  0  0  0
    2.7692   -0.0356    0.7105 C   0  0  0  0  0  0  0  0  0  0  0  0
    4.1370   -0.2731    0.8126 C   0  0  0  0  0  0  0  0  0  0  0  0
    4.5620   -0.6426    1.7405 H   0  0  0  0  0  0  0  0  0  0  0  0
    4.9459   -0.0129   -0.2972 C   0  0  0  0  0  0  0  0  0  0  0  0
    6.0165   -0.1847   -0.2433 H   0  0  0  0  0  0  0  0  0  0  0  0
    4.3651    0.4715   -1.4723 C   0  0  0  0  0  0  0  0  0  0  0  0
    4.9645    0.6911   -2.3492 H   0  0  0  0  0  0  0  0  0  0  0  0
    2.9880    0.6697   -1.5032 C   0  0  0  0  0  0  0  0  0  0  0  0
    2.4679    1.0405   -2.3801 H   0  0  0  0  0  0  0  0  0  0  0  0
    2.2159    0.4111   -0.4325 N   0  0  0  0  0  0  0  0  0  0  0  0
    0.0456    1.5687   -1.8840 O   0  0  0  0  0  1  0  0  0  0  0  0
   -0.4441    2.4051   -2.0031 H   0  0  0  0  0  0  0  0  0  0  0  0
    0.2748    2.2973    0.7969 N   0  0  0  0  0  0  0  0  0  0  0  0
    0.8495    3.3169    0.4002 N   0  3  0  0  0  0  0  0  0  0  0  0
    1.3773    4.2825    0.1009 N   0  5  0  0  0  0  0  0  0  0  0  0
  1 54  1  0  0  0  0
  2  3  1  0  0  0  0
  2  1  9  0  0  0  0
  3  4  1  0  0  0  0
  5  3  2  0  0  0  0
  5  6  1  0  0  0  0
  7  5  1  0  0  0  0
  8  7  1  0  0  0  0
  9 11  1  0  0  0  0
  9  7  2  0  0  0  0
 10  9  1  0  0  0  0
 11  2  2  0  0  0  0
 12 15  1  0  0  0  0
 12 11  1  0  0  0  0
 13 12  1  0  0  0  0
 14 12  1  0  0  0  0
 15 16  1  6  0  0  0
 15 25  1  0  0  0  0
 15  1  9  0  0  0  0
 16 17  1  0  0  0  0
 18 16  1  0  0  0  0
 19 16  1  0  0  0  0
 19 22  1  0  0  0  0
 20 19  1  0  0  0  0
 21 19  1  0  0  0  0
 22 23  1  0  0  0  0
 22 25  1  0  0  0  0
 24 22  1  0  0  0  0
 25 26  1  1  0  0  0
 25 27  1  0  0  0  0
 27 28  1  6  0  0  0
 27 38  1  0  0  0  0
 27 29  1  0  0  0  0
 29 31  1  0  0  0  0
 29 32  1  0  0  0  0
 30 29  1  0  0  0  0
 32 33  1  0  0  0  0
 32 34  1  0  0  0  0
 35 36  1  0  0  0  0
 35 32  1  0  0  0  0
 37 35  1  0  0  0  0
 38 39  1  1  0  0  0
 38 35  1  0  0  0  0
 38  1  9  0  0  0  0
 39 41  1  0  0  0  0
 39 40  1  0  0  0  0
 42 43  1  0  0  0  0
 42 39  1  0  0  0  0
 43 44  1  0  0  0  0
 45 46  1  0  0  0  0
 45 43  2  0  0  0  0
 47 45  1  0  0  0  0
 48 47  1  0  0  0  0
 49 47  2  0  0  0  0
 49 51  1  0  0  0  0
 50 49  1  0  0  0  0
 51 42  2  0  0  0  0
 51  1  9  0  0  0  0
 53 52  1  0  0  0  0
 55 54  2  0  0  0  0
 56 55  2  0  0  0  0
M  RAD  1  52   2
M  CHG  3   1   2  55   1  56  -1
M  END
$$$$
