
 OpenBabel02072512503D

 64 66  0  0  0  0  0  0  0  0999 V2000
    0.4738    0.0177    0.0540 Fe  0  3  2  0  0 28  0  0  0  0  0  0
   -0.8114   -0.9315   -1.4969 N   0  0  2  0  0  0  0  0  0  0  0  0
   -0.3112   -2.3374   -1.6800 C   0  0  0  0  0  0  0  0  0  0  0  0
    0.7005   -2.2524   -2.0771 H   0  0  0  0  0  0  0  0  0  0  0  0
   -0.9191   -2.8294   -2.4520 H   0  0  0  0  0  0  0  0  0  0  0  0
   -0.3184   -3.2420   -0.4290 C   0  0  0  0  0  0  0  0  0  0  0  0
   -1.3486   -3.4675   -0.1343 H   0  0  0  0  0  0  0  0  0  0  0  0
    0.0750   -4.2047   -0.7778 H   0  0  0  0  0  0  0  0  0  0  0  0
    0.5142   -2.8879    0.8220 C   0  0  0  0  0  0  0  0  0  0  0  0
    0.4311   -3.7334    1.5194 H   0  0  0  0  0  0  0  0  0  0  0  0
    1.5670   -2.7822    0.5618 H   0  0  0  0  0  0  0  0  0  0  0  0
    0.1072   -1.6360    1.5454 N   0  0  1  0  0  0  0  0  0  0  0  0
    1.0364   -1.3197    2.6937 C   0  0  0  0  0  0  0  0  0  0  0  0
    0.4183   -1.0096    3.5378 H   0  0  0  0  0  0  0  0  0  0  0  0
    1.5623   -2.2275    3.0104 H   0  0  0  0  0  0  0  0  0  0  0  0
    2.0688   -0.2314    2.3912 C   0  0  0  0  0  0  0  0  0  0  0  0
    2.5430    0.0782    3.3323 H   0  0  0  0  0  0  0  0  0  0  0  0
    2.8463   -0.6217    1.7354 H   0  0  0  0  0  0  0  0  0  0  0  0
    1.4734    0.9594    1.7023 N   0  0  1  0  0  0  0  0  0  0  0  0
    2.5781    1.8593    1.2273 C   0  0  0  0  0  0  0  0  0  0  0  0
    3.0008    2.3668    2.1044 H   0  0  0  0  0  0  0  0  0  0  0  0
    3.3560    1.2143    0.8126 H   0  0  0  0  0  0  0  0  0  0  0  0
    2.1871    2.9031    0.1729 C   0  0  0  0  0  0  0  0  0  0  0  0
    1.3639    3.5355    0.5197 H   0  0  0  0  0  0  0  0  0  0  0  0
    3.0463    3.5784    0.0863 H   0  0  0  0  0  0  0  0  0  0  0  0
    1.9219    2.3604   -1.2390 C   0  0  0  0  0  0  0  0  0  0  0  0
    1.9730    3.1837   -1.9638 H   0  0  0  0  0  0  0  0  0  0  0  0
    2.7033    1.6439   -1.5005 H   0  0  0  0  0  0  0  0  0  0  0  0
    0.6020    1.6676   -1.4058 N   0  0  0  0  0  0  0  0  0  0  0  0
    0.5695    0.8860   -2.6787 C   0  0  0  0  0  0  0  0  0  0  0  0
    0.5022    1.5615   -3.5428 H   0  0  0  0  0  0  0  0  0  0  0  0
    1.5116    0.3462   -2.7629 H   0  0  0  0  0  0  0  0  0  0  0  0
   -0.6146   -0.0890   -2.7378 C   0  0  0  0  0  0  0  0  0  0  0  0
   -1.5339    0.4753   -2.9025 H   0  0  0  0  0  0  0  0  0  0  0  0
   -0.4908   -0.7420   -3.6087 H   0  0  0  0  0  0  0  0  0  0  0  0
   -1.2530   -1.8024    2.1216 C   0  0  0  0  0  0  0  0  0  0  0  0
   -1.2502   -2.5823    2.8935 H   0  0  0  0  0  0  0  0  0  0  0  0
   -1.9680   -2.0924    1.3559 H   0  0  0  0  0  0  0  0  0  0  0  0
   -1.5833   -0.8600    2.5576 H   0  0  0  0  0  0  0  0  0  0  0  0
    0.5404    1.6958    2.5917 C   0  0  0  0  0  0  0  0  0  0  0  0
    1.0566    2.0387    3.4970 H   0  0  0  0  0  0  0  0  0  0  0  0
   -0.2969    1.0556    2.8655 H   0  0  0  0  0  0  0  0  0  0  0  0
    0.1351    2.5562    2.0596 H   0  0  0  0  0  0  0  0  0  0  0  0
   -0.4921    2.6714   -1.3778 C   0  0  0  0  0  0  0  0  0  0  0  0
   -0.3075    3.4574   -2.1207 H   0  0  0  0  0  0  0  0  0  0  0  0
   -0.5632    3.1164   -0.3864 H   0  0  0  0  0  0  0  0  0  0  0  0
   -1.4488    2.2009   -1.5950 H   0  0  0  0  0  0  0  0  0  0  0  0
   -2.2337   -0.8915   -1.0862 C   0  0  0  0  0  0  0  0  0  0  0  0
   -2.5144   -1.8411   -0.6264 H   0  0  0  0  0  0  0  0  0  0  0  0
   -2.8873   -0.7700   -1.9551 H   0  0  0  0  0  0  0  0  0  0  0  0
   -2.4493    0.2187   -0.0537 C   0  0  0  0  0  0  0  0  0  0  0  0
   -1.4290    0.6988    0.5240 O   0  0  0  0  0  1  0  0  0  0  0  0
   -3.6761    0.6316    0.2351 N   0  3  0  0  0  0  0  0  0  0  0  0
   -3.8948    1.7160    1.2074 C   0  0  0  0  0  0  0  0  0  0  0  0
   -4.3506    1.3086    2.1153 H   0  0  0  0  0  0  0  0  0  0  0  0
   -4.5742    2.4512    0.7676 H   0  0  0  0  0  0  0  0  0  0  0  0
   -2.9464    2.1894    1.4518 H   0  0  0  0  0  0  0  0  0  0  0  0
   -4.8984    0.0751   -0.3703 C   0  0  0  0  0  0  0  0  0  0  0  0
   -5.2371    0.7081   -1.1970 H   0  0  0  0  0  0  0  0  0  0  0  0
   -5.6780    0.0513    0.3943 H   0  0  0  0  0  0  0  0  0  0  0  0
   -4.7469   -0.9444   -0.7238 H   0  0  0  0  0  0  0  0  0  0  0  0
    2.0906   -0.7150   -0.5854 N   0  0  0  0  0  0  0  0  0  0  0  0
    2.9392   -1.2737   -1.2472 N   0  3  0  0  0  0  0  0  0  0  0  0
    3.7407   -1.8048   -1.8759 N   0  5  0  0  0  0  0  0  0  0  0  0
  1 62  1  6  0  0  0
  2 48  1  1  0  0  0
  2  1  9  0  0  0  0
  3  2  1  0  0  0  0
  3  6  1  0  0  0  0
  4  3  1  0  0  0  0
  5  3  1  0  0  0  0
  6  7  1  0  0  0  0
  6  9  1  0  0  0  0
  8  6  1  0  0  0  0
  9 10  1  0  0  0  0
  9 12  1  0  0  0  0
 11  9  1  0  0  0  0
 12 36  1  1  0  0  0
 12 13  1  0  0  0  0
 12  1  9  0  0  0  0
 13 15  1  0  0  0  0
 13 14  1  0  0  0  0
 16 13  1  0  0  0  0
 16 17  1  0  0  0  0
 18 16  1  0  0  0  0
 19 16  1  0  0  0  0
 19 40  1  1  0  0  0
 19  1  9  0  0  0  0
 20 19  1  0  0  0  0
 20 21  1  0  0  0  0
 22 20  1  0  0  0  0
 23 24  1  0  0  0  0
 23 20  1  0  0  0  0
 25 23  1  0  0  0  0
 26 23  1  0  0  0  0
 27 26  1  0  0  0  0
 28 26  1  0  0  0  0
 29 44  1  0  0  0  0
 29 26  1  0  0  0  0
 30 29  1  0  0  0  0
 31 30  1  0  0  0  0
 32 30  1  0  0  0  0
 33 30  1  0  0  0  0
 33  2  1  0  0  0  0
 34 33  1  0  0  0  0
 35 33  1  0  0  0  0
 36 39  1  0  0  0  0
 36 37  1  0  0  0  0
 38 36  1  0  0  0  0
 40 42  1  0  0  0  0
 40 41  1  0  0  0  0
 43 40  1  0  0  0  0
 44 46  1  0  0  0  0
 45 44  1  0  0  0  0
 47 44  1  0  0  0  0
 48 49  1  0  0  0  0
 48 51  1  0  0  0  0
 50 48  1  0  0  0  0
 51 53  2  0  0  0  0
 51 52  1  0  0  0  0
 53 54  1  0  0  0  0
 54 57  1  0  0  0  0
 54 55  1  0  0  0  0
 56 54  1  0  0  0  0
 58 53  1  0  0  0  0
 58 60  1  0  0  0  0
 59 58  1  0  0  0  0
 61 58  1  0  0  0  0
 63 62  2  0  0  0  0
 64 63  2  0  0  0  0
M  RAD  2   1   2  52   2
M  CHG  4   1   1  53   1  63   1  64  -1
M  END
$$$$
