
 OpenBabel02052520083D

 57 60  0  0  0  0  0  0  0  0999 V2000
   -0.3429    0.3072    0.2738 Fe  0  0  0  0  0  0  0  0  0  0  0  0
   -1.2248   -0.3417   -1.6931 N   0  0  2  0  0  0  0  0  0  0  0  0
   -0.6266   -1.6675   -2.0426 C   0  0  0  0  0  0  0  0  0  0  0  0
   -0.8623   -2.8221   -1.0526 C   0  0  0  0  0  0  0  0  0  0  0  0
   -0.1817   -2.7606    0.3246 C   0  0  0  0  0  0  0  0  0  0  0  0
   -0.6786   -1.7035    1.2495 N   0  0  1  0  0  0  0  0  0  0  0  0
    0.1230   -1.6843    2.5049 C   0  0  0  0  0  0  0  0  0  0  0  0
    1.3724   -0.8159    2.4007 C   0  0  0  0  0  0  0  0  0  0  0  0
    1.0575    0.5708    1.9645 N   0  0  1  0  0  0  0  0  0  0  0  0
    2.3347    1.2950    1.7102 C   0  0  0  0  0  0  0  0  0  0  0  0
    2.2041    2.5718    0.8727 C   0  0  0  0  0  0  0  0  0  0  0  0
    1.9609    2.3332   -0.6223 C   0  0  0  0  0  0  0  0  0  0  0  0
    0.5722    1.9186   -0.9687 N   0  0  1  0  0  0  0  0  0  0  0  0
    0.5598    1.3306   -2.3340 C   0  0  0  0  0  0  0  0  0  0  0  0
   -0.7811    0.6849   -2.6817 C   0  0  0  0  0  0  0  0  0  0  0  0
   -2.0938   -1.9325    1.6129 C   0  0  0  0  0  0  0  0  0  0  0  0
    0.2561    1.2888    2.9825 C   0  0  0  0  0  0  0  0  0  0  0  0
   -0.3317    3.0848   -0.8779 C   0  0  0  0  0  0  0  0  0  0  0  0
   -2.7136   -0.4198   -1.7107 C   0  0  0  0  0  0  0  0  0  0  0  0
   -3.4585    0.7453   -1.0369 C   0  0  0  0  0  0  0  0  0  0  0  0
   -3.2245    0.8282    0.4804 C   0  0  0  0  0  0  0  0  0  0  0  0
   -1.9959    1.1283    0.8349 O   0  0  0  0  0  0  0  0  0  0  0  0
   -4.1364    0.6067    1.2643 O   0  0  0  0  0  0  0  0  0  0  0  0
    0.4516   -1.5184   -2.1378 H   0  0  0  0  0  0  0  0  0  0  0  0
   -1.0193   -1.9763   -3.0267 H   0  0  0  0  0  0  0  0  0  0  0  0
   -1.9295   -3.0467   -0.9501 H   0  0  0  0  0  0  0  0  0  0  0  0
   -0.4328   -3.7039   -1.5447 H   0  0  0  0  0  0  0  0  0  0  0  0
   -0.3114   -3.7423    0.8124 H   0  0  0  0  0  0  0  0  0  0  0  0
    0.8868   -2.5909    0.1738 H   0  0  0  0  0  0  0  0  0  0  0  0
   -0.5264   -1.3116    3.3006 H   0  0  0  0  0  0  0  0  0  0  0  0
    0.4175   -2.7058    2.7882 H   0  0  0  0  0  0  0  0  0  0  0  0
    1.8825   -0.8040    3.3782 H   0  0  0  0  0  0  0  0  0  0  0  0
    2.0567   -1.2306    1.6570 H   0  0  0  0  0  0  0  0  0  0  0  0
    2.7967    1.5364    2.6818 H   0  0  0  0  0  0  0  0  0  0  0  0
    2.9947    0.6031    1.1821 H   0  0  0  0  0  0  0  0  0  0  0  0
    1.4597    3.2552    1.2973 H   0  0  0  0  0  0  0  0  0  0  0  0
    3.1639    3.0975    0.9549 H   0  0  0  0  0  0  0  0  0  0  0  0
    2.2029    3.2488   -1.1871 H   0  0  0  0  0  0  0  0  0  0  0  0
    2.6291    1.5381   -0.9600 H   0  0  0  0  0  0  0  0  0  0  0  0
    0.7851    2.1022   -3.0892 H   0  0  0  0  0  0  0  0  0  0  0  0
    1.3542    0.5811   -2.3607 H   0  0  0  0  0  0  0  0  0  0  0  0
   -1.5560    1.4505   -2.7404 H   0  0  0  0  0  0  0  0  0  0  0  0
   -0.7081    0.2352   -3.6832 H   0  0  0  0  0  0  0  0  0  0  0  0
   -2.2094   -2.8840    2.1554 H   0  0  0  0  0  0  0  0  0  0  0  0
   -2.7173   -1.9655    0.7222 H   0  0  0  0  0  0  0  0  0  0  0  0
   -2.4588   -1.1054    2.2220 H   0  0  0  0  0  0  0  0  0  0  0  0
    0.7662    1.2824    3.9584 H   0  0  0  0  0  0  0  0  0  0  0  0
   -0.7352    0.8454    3.0747 H   0  0  0  0  0  0  0  0  0  0  0  0
    0.1050    2.3205    2.6630 H   0  0  0  0  0  0  0  0  0  0  0  0
   -0.0544    3.8536   -1.6163 H   0  0  0  0  0  0  0  0  0  0  0  0
   -0.2782    3.5115    0.1240 H   0  0  0  0  0  0  0  0  0  0  0  0
   -1.3648    2.7804   -1.0288 H   0  0  0  0  0  0  0  0  0  0  0  0
   -3.0072   -1.3419   -1.2093 H   0  0  0  0  0  0  0  0  0  0  0  0
   -3.0493   -0.5133   -2.7568 H   0  0  0  0  0  0  0  0  0  0  0  0
   -3.1846    1.7008   -1.4989 H   0  0  0  0  0  0  0  0  0  0  0  0
   -4.5285    0.5965   -1.2065 H   0  0  0  0  0  0  0  0  0  0  0  0
    2.8224   -1.1838   -0.9460 Br  0  0  0  0  0  0  0  0  0  0  0  0
  1 22  1  0  0  0  0
  2 15  1  6  0  0  0
  2  1  9  0  0  0  0
  3  2  1  0  0  0  0
  3  4  1  0  0  0  0
  4 26  1  0  0  0  0
  4  5  1  0  0  0  0
  5 28  1  0  0  0  0
  5  6  1  0  0  0  0
  6 16  1  1  0  0  0
  6  7  1  0  0  0  0
  6  1  9  0  0  0  0
  7 31  1  0  0  0  0
  7 30  1  0  0  0  0
  8  7  1  0  0  0  0
  8 32  1  0  0  0  0
  9  8  1  0  0  0  0
  9 17  1  1  0  0  0
  9  1  9  0  0  0  0
 10  9  1  0  0  0  0
 10 34  1  0  0  0  0
 11 37  1  0  0  0  0
 11 36  1  0  0  0  0
 11 10  1  0  0  0  0
 12 11  1  0  0  0  0
 13 18  1  1  0  0  0
 13 12  1  0  0  0  0
 13  1  9  0  0  0  0
 14 13  1  0  0  0  0
 15 14  1  0  0  0  0
 16 44  1  0  0  0  0
 16 46  1  0  0  0  0
 17 48  1  0  0  0  0
 17 47  1  0  0  0  0
 18 51  1  0  0  0  0
 19  2  1  0  0  0  0
 19 53  1  0  0  0  0
 19 20  1  0  0  0  0
 20 21  1  0  0  0  0
 21 22  1  0  0  0  0
 21 23  2  0  0  0  0
 24  3  1  0  0  0  0
 25  3  1  0  0  0  0
 27  4  1  0  0  0  0
 29  5  1  0  0  0  0
 33  8  1  0  0  0  0
 35 10  1  0  0  0  0
 38 12  1  0  0  0  0
 39 12  1  0  0  0  0
 40 14  1  0  0  0  0
 41 14  1  0  0  0  0
 42 15  1  0  0  0  0
 43 15  1  0  0  0  0
 45 16  1  0  0  0  0
 49 17  1  0  0  0  0
 50 18  1  0  0  0  0
 52 18  1  0  0  0  0
 54 19  1  0  0  0  0
 55 20  1  0  0  0  0
 56 20  1  0  0  0  0
M  END
$$$$
