
 OpenBabel02052520083D

 57 62  0  0  0  0  0  0  0  0999 V2000
   -0.0615    0.0546   -0.0655 Fe  0  2  0  0  0  0  0  0  0  0  0  0
    0.7928   -1.7624   -0.5167 N   0  0  2  0  0  0  0  0  0  0  0  0
    1.8775   -1.7427   -1.5460 C   0  0  0  0  0  0  0  0  0  0  0  0
    1.3777   -1.4846   -2.4796 H   0  0  0  0  0  0  0  0  0  0  0  0
    2.2812   -2.7607   -1.6255 H   0  0  0  0  0  0  0  0  0  0  0  0
    3.0309   -0.7711   -1.2982 C   0  0  0  0  0  0  0  0  0  0  0  0
    3.6894   -0.8712   -2.1692 H   0  0  0  0  0  0  0  0  0  0  0  0
    3.6490   -1.0959   -0.4536 H   0  0  0  0  0  0  0  0  0  0  0  0
    2.6796    0.7139   -1.1963 C   0  0  0  0  0  0  0  0  0  0  0  0
    3.6086    1.2996   -1.1979 H   0  0  0  0  0  0  0  0  0  0  0  0
    2.0695    1.0014   -2.0504 H   0  0  0  0  0  0  0  0  0  0  0  0
    1.9046    1.0899    0.0384 N   0  0  1  0  0  0  0  0  0  0  0  0
    1.5779    2.5574    0.0012 C   0  0  0  0  0  0  0  0  0  0  0  0
    1.6199    2.9458    1.0214 H   0  0  0  0  0  0  0  0  0  0  0  0
    2.3418    3.1014   -0.5656 H   0  0  0  0  0  0  0  0  0  0  0  0
    0.2219    2.8378   -0.6018 C   0  0  0  0  0  0  0  0  0  0  0  0
    0.2215    2.6352   -1.6715 H   0  0  0  0  0  0  0  0  0  0  0  0
   -0.0680    3.8802   -0.4266 H   0  0  0  0  0  0  0  0  0  0  0  0
   -0.8292    1.9517   -0.0203 N   0  0  1  0  0  0  0  0  0  0  0  0
   -2.1751    2.2576   -0.6018 C   0  0  0  0  0  0  0  0  0  0  0  0
   -2.0203    2.3975   -1.6748 H   0  0  0  0  0  0  0  0  0  0  0  0
   -2.4679    3.2283   -0.1859 H   0  0  0  0  0  0  0  0  0  0  0  0
   -3.2643    1.2209   -0.3659 C   0  0  0  0  0  0  0  0  0  0  0  0
   -3.5028    1.1076    0.6965 H   0  0  0  0  0  0  0  0  0  0  0  0
   -4.1747    1.6322   -0.8170 H   0  0  0  0  0  0  0  0  0  0  0  0
   -2.9816   -0.1177   -1.0377 C   0  0  0  0  0  0  0  0  0  0  0  0
   -2.6889    0.0564   -2.0757 H   0  0  0  0  0  0  0  0  0  0  0  0
   -3.8973   -0.7212   -1.0679 H   0  0  0  0  0  0  0  0  0  0  0  0
   -1.9034   -0.9361   -0.3900 N   0  0  1  0  0  0  0  0  0  0  0  0
   -1.5256   -2.0124   -1.3667 C   0  0  0  0  0  0  0  0  0  0  0  0
   -2.3590   -2.7148   -1.4958 H   0  0  0  0  0  0  0  0  0  0  0  0
   -1.3159   -1.5246   -2.3154 H   0  0  0  0  0  0  0  0  0  0  0  0
   -0.2805   -2.7399   -0.9061 C   0  0  0  0  0  0  0  0  0  0  0  0
    0.0827   -3.3834   -1.7121 H   0  0  0  0  0  0  0  0  0  0  0  0
   -0.4920   -3.3925   -0.0564 H   0  0  0  0  0  0  0  0  0  0  0  0
    2.7843    0.9225    1.2350 C   0  0  0  0  0  0  0  0  0  0  0  0
    3.6197    1.6313    1.1904 H   0  0  0  0  0  0  0  0  0  0  0  0
    3.2070   -0.0767    1.2839 H   0  0  0  0  0  0  0  0  0  0  0  0
    2.2150    1.1063    2.1478 H   0  0  0  0  0  0  0  0  0  0  0  0
   -0.7314    1.4532    1.2447 C   0  0  0  0  0  0  0  0  0  0  0  0
    0.0534    1.8119    1.8974 H   0  0  0  0  0  0  0  0  0  0  0  0
   -1.3059    0.2428    3.4934 H   0  0  0  0  0  0  0  0  0  0  0  0
   -1.6678    1.1955    1.7185 H   0  0  0  0  0  0  0  0  0  0  0  0
   -2.4683   -1.5526    0.8434 C   0  0  0  0  0  0  0  0  0  0  0  0
   -2.7311   -0.7793    1.5644 H   0  0  0  0  0  0  0  0  0  0  0  0
   -1.7374   -2.2117    1.3088 H   0  0  0  0  0  0  0  0  0  0  0  0
   -3.3678   -2.1345    0.6087 H   0  0  0  0  0  0  0  0  0  0  0  0
    1.2027   -1.9524    0.8911 C   0  0  0  0  0  0  0  0  0  0  0  0
    2.2772   -1.7889    1.0256 H   0  0  0  0  0  0  0  0  0  0  0  0
    1.0168   -2.9684    1.2723 H   0  0  0  0  0  0  0  0  0  0  0  0
    0.4156   -0.8853    1.5664 C   0  0  1  0  0  3  0  0  0  0  0  0
    0.4362   -0.9177    2.9981 C   0  0  0  0  0  0  0  0  0  0  0  0
    1.2018   -1.5484    3.4578 H   0  0  0  0  0  0  0  0  0  0  0  0
   -0.4605   -0.3409    3.8366 C   0  0  0  0  0  0  0  0  0  0  0  0
   -0.3941   -0.4975    4.9101 H   0  0  0  0  0  0  0  0  0  0  0  0
    0.0285    0.3200   -1.9337 O   0  0  0  0  0  0  0  0  0  0  0  0
   -0.7591    0.7126   -2.3369 H   0  0  0  0  0  0  0  0  0  0  0  0
  1 40  1  0  0  0  0
  1 51  1  0  0  0  0
  2  3  1  6  0  0  0
  2 48  1  0  0  0  0
  2  1  9  0  0  0  0
  3  6  1  0  0  0  0
  4  3  1  0  0  0  0
  5  3  1  0  0  0  0
  6  9  1  0  0  0  0
  6  8  1  0  0  0  0
  7  6  1  0  0  0  0
  9 12  1  0  0  0  0
 10  9  1  0  0  0  0
 11  9  1  0  0  0  0
 12 36  1  1  0  0  0
 12  1  9  0  0  0  0
 13 12  1  0  0  0  0
 13 14  1  0  0  0  0
 15 13  1  0  0  0  0
 16 18  1  0  0  0  0
 16 13  1  0  0  0  0
 17 16  1  0  0  0  0
 19 16  1  6  0  0  0
 19 40  1  0  0  0  0
 19  1  9  0  0  0  0
 20 23  1  0  0  0  0
 20 22  1  0  0  0  0
 20 19  1  0  0  0  0
 21 20  1  0  0  0  0
 23 24  1  0  0  0  0
 25 23  1  0  0  0  0
 26 29  1  0  0  0  0
 26 23  1  0  0  0  0
 27 26  1  0  0  0  0
 28 26  1  0  0  0  0
 29 44  1  1  0  0  0
 29  1  9  0  0  0  0
 30 33  1  0  0  0  0
 30 29  1  0  0  0  0
 31 30  1  0  0  0  0
 32 30  1  0  0  0  0
 33  2  1  0  0  0  0
 33 35  1  0  0  0  0
 34 33  1  0  0  0  0
 36 38  1  0  0  0  0
 36 39  1  0  0  0  0
 37 36  1  0  0  0  0
 40 43  1  0  0  0  0
 40 41  1  0  0  0  0
 42 54  1  0  0  0  0
 44 46  1  0  0  0  0
 44 45  1  0  0  0  0
 47 44  1  0  0  0  0
 48 49  1  0  0  0  0
 48 50  1  0  0  0  0
 48 51  1  0  0  0  0
 51 52  1  1  0  0  0
 52 53  1  0  0  0  0
 52 54  2  0  0  0  0
 54 55  1  0  0  0  0
 56  1  1  0  0  0  0
 57 56  1  0  0  0  0
M  RAD  1  51   2
M  CHG  1   1   2
M  END
$$$$
