
 OpenBabel02072512503D

 58 59  0  0  0  0  0  0  0  0999 V2000
    0.0551    0.1363    0.0183 Fe  0  5  0  0  0 19  0  0  0  0  0  0
   -0.8174   -0.9704   -1.4675 N   0  0  0  0  0  0  0  0  0  0  0  0
   -2.0058   -1.8264   -1.1385 C   0  0  0  0  0  0  0  0  0  0  0  0
   -1.6258   -2.7182   -0.6437 H   0  0  0  0  0  0  0  0  0  0  0  0
   -2.4480   -2.1516   -2.0900 H   0  0  0  0  0  0  0  0  0  0  0  0
   -3.1025   -1.1834   -0.2851 C   0  0  0  0  0  0  0  0  0  0  0  0
   -3.8009   -1.9965   -0.0533 H   0  0  0  0  0  0  0  0  0  0  0  0
   -3.6966   -0.4786   -0.8760 H   0  0  0  0  0  0  0  0  0  0  0  0
   -2.7052   -0.5643    1.0584 C   0  0  0  0  0  0  0  0  0  0  0  0
   -3.6241   -0.3122    1.6044 H   0  0  0  0  0  0  0  0  0  0  0  0
   -2.1369   -1.2725    1.6591 H   0  0  0  0  0  0  0  0  0  0  0  0
   -1.8773    0.6896    0.9506 N   0  0  1  0  0  0  0  0  0  0  0  0
   -1.5499    1.2160    2.3273 C   0  0  0  0  0  0  0  0  0  0  0  0
   -1.6161    2.3058    2.2973 H   0  0  0  0  0  0  0  0  0  0  0  0
   -2.3055    0.8836    3.0472 H   0  0  0  0  0  0  0  0  0  0  0  0
   -0.1833    0.7983    2.8255 C   0  0  0  0  0  0  0  0  0  0  0  0
   -0.1586   -0.2592    3.0846 H   0  0  0  0  0  0  0  0  0  0  0  0
    0.1036    1.3951    3.6988 H   0  0  0  0  0  0  0  0  0  0  0  0
    0.8671    0.9738    1.7821 N   0  3  0  0  0  0  0  0  0  0  0  0
    2.1977    0.4671    2.2472 C   0  0  0  0  0  0  0  0  0  0  0  0
    1.9963   -0.4968    2.7165 H   0  0  0  0  0  0  0  0  0  0  0  0
    2.5223    1.1724    3.0208 H   0  0  0  0  0  0  0  0  0  0  0  0
    3.2671    0.3060    1.1758 C   0  0  0  0  0  0  0  0  0  0  0  0
    3.5120    1.2500    0.6770 H   0  0  0  0  0  0  0  0  0  0  0  0
    4.1820    0.0285    1.7120 H   0  0  0  0  0  0  0  0  0  0  0  0
    2.9671   -0.8192    0.1917 C   0  0  0  0  0  0  0  0  0  0  0  0
    2.6533   -1.6969    0.7566 H   0  0  0  0  0  0  0  0  0  0  0  0
    3.8772   -1.0844   -0.3606 H   0  0  0  0  0  0  0  0  0  0  0  0
    1.8876   -0.5257   -0.8141 N   0  0  1  0  0  0  0  0  0  0  0  0
    1.5474   -1.8307   -1.4728 C   0  0  0  0  0  0  0  0  0  0  0  0
    2.3477   -2.1169   -2.1670 H   0  0  0  0  0  0  0  0  0  0  0  0
    1.5072   -2.5985   -0.7064 H   0  0  0  0  0  0  0  0  0  0  0  0
    0.2229   -1.7675   -2.2184 C   0  0  0  0  0  0  0  0  0  0  0  0
   -0.1426   -2.7855   -2.3727 H   0  0  0  0  0  0  0  0  0  0  0  0
    0.3499   -1.3269   -3.2097 H   0  0  0  0  0  0  0  0  0  0  0  0
   -2.7169    1.7601    0.3263 C   0  0  0  0  0  0  0  0  0  0  0  0
   -3.5734    1.9897    0.9712 H   0  0  0  0  0  0  0  0  0  0  0  0
   -3.1052    1.4528   -0.6399 H   0  0  0  0  0  0  0  0  0  0  0  0
   -2.1281    2.6678    0.1891 H   0  0  0  0  0  0  0  0  0  0  0  0
    0.7794    1.9140    0.8234 C   0  0  0  0  0  0  0  0  0  0  0  0
    1.7085    2.2161    0.3643 H   0  0  0  0  0  0  0  0  0  0  0  0
   -0.0122    2.6492    0.8676 H   0  0  0  0  0  0  0  0  0  0  0  0
    1.3358    3.5418   -1.1499 H   0  0  0  0  0  0  0  0  0  0  0  0
    2.4369    0.3994   -1.8464 C   0  0  0  0  0  0  0  0  0  0  0  0
    2.6421    1.3775   -1.4138 H   0  0  0  0  0  0  0  0  0  0  0  0
    1.7191    0.5279   -2.6566 H   0  0  0  0  0  0  0  0  0  0  0  0
    3.3678   -0.0003   -2.2655 H   0  0  0  0  0  0  0  0  0  0  0  0
   -1.1542    0.2745   -2.2023 C   0  0  0  0  0  0  0  0  0  0  0  0
   -2.2292    0.4858   -2.1631 H   0  0  0  0  0  0  0  0  0  0  0  0
   -0.9119    0.2227   -3.2743 H   0  0  0  0  0  0  0  0  0  0  0  0
   -0.3854    1.2970   -1.4482 C   0  3  0  0  0  0  0  0  0  0  0  0
   -0.4030    2.6114   -2.0193 C   0  0  0  0  0  0  0  0  0  0  0  0
   -1.1691    2.7891   -2.7792 H   0  0  0  0  0  0  0  0  0  0  0  0
    0.4839    3.6171   -1.8144 C   0  3  0  0  0  0  0  0  0  0  0  0
    0.4023    4.5443   -2.3754 H   0  0  0  0  0  0  0  0  0  0  0  0
    0.1309   -1.4436    1.2272 N   0  0  0  0  0  0  0  0  0  0  0  0
    0.0130   -2.6319    1.0108 N   0  3  0  0  0  0  0  0  0  0  0  0
   -0.0828   -3.7723    0.8639 N   0  5  0  0  0  0  0  0  0  0  0  0
  2  3  1  0  0  0  0
  3  4  1  0  0  0  0
  3  6  1  0  0  0  0
  5  3  1  0  0  0  0
  6  7  1  0  0  0  0
  6  9  1  0  0  0  0
  8  6  1  0  0  0  0
  9 10  1  0  0  0  0
  9 11  1  0  0  0  0
 12 36  1  6  0  0  0
 12  9  1  0  0  0  0
 12 13  1  0  0  0  0
 12  1  9  0  0  0  0
 13 16  1  0  0  0  0
 13 15  1  0  0  0  0
 14 13  1  0  0  0  0
 16 17  1  0  0  0  0
 16 18  1  0  0  0  0
 19 20  1  0  0  0  0
 19 16  1  0  0  0  0
 20 21  1  0  0  0  0
 20 22  1  0  0  0  0
 23 25  1  0  0  0  0
 23 20  1  0  0  0  0
 24 23  1  0  0  0  0
 26 27  1  0  0  0  0
 26 23  1  0  0  0  0
 28 26  1  0  0  0  0
 29 44  1  6  0  0  0
 29 26  1  0  0  0  0
 29  1  9  0  0  0  0
 30 29  1  0  0  0  0
 30 32  1  0  0  0  0
 31 30  1  0  0  0  0
 33 30  1  0  0  0  0
 33  2  1  0  0  0  0
 34 33  1  0  0  0  0
 35 33  1  0  0  0  0
 36 37  1  0  0  0  0
 38 36  1  0  0  0  0
 39 36  1  0  0  0  0
 40 42  1  0  0  0  0
 40 19  2  0  0  0  0
 41 40  1  0  0  0  0
 44 45  1  0  0  0  0
 46 44  1  0  0  0  0
 47 44  1  0  0  0  0
 48 49  1  0  0  0  0
 48  2  1  0  0  0  0
 48 51  1  0  0  0  0
 50 48  1  0  0  0  0
 52 54  1  0  0  0  0
 52 51  2  0  0  0  0
 53 52  1  0  0  0  0
 54 43  1  0  0  0  0
 55 54  1  0  0  0  0
 56  1  1  0  0  0  0
 57 56  2  0  0  0  0
 58 57  2  0  0  0  0
M  RAD  1   1   2
M  CHG  6   1  -1  19   1  51   1  54   1  57   1  58  -1
M  END
$$$$
