
 OpenBabel02052520083D

 56 60  0  0  0  0  0  0  0  0999 V2000
   -0.0108    0.1991   -0.0750 Fe  0  2  0  0  0  0  0  0  0  0  0  0
    0.8426    0.3764    1.7817 N   0  0  2  0  0  0  0  0  0  0  0  0
    1.9399   -0.5757    2.1625 C   0  0  0  0  0  0  0  0  0  0  0  0
    1.4528   -1.5299    2.3567 H   0  0  0  0  0  0  0  0  0  0  0  0
    2.3797   -0.2122    3.1010 H   0  0  0  0  0  0  0  0  0  0  0  0
    3.0624   -0.7618    1.1374 C   0  0  0  0  0  0  0  0  0  0  0  0
    3.7141   -1.5358    1.5605 H   0  0  0  0  0  0  0  0  0  0  0  0
    3.7007    0.1275    1.0879 H   0  0  0  0  0  0  0  0  0  0  0  0
    2.6899   -1.2463   -0.2673 C   0  0  0  0  0  0  0  0  0  0  0  0
    3.6170   -1.4589   -0.8159 H   0  0  0  0  0  0  0  0  0  0  0  0
    2.1103   -2.1643   -0.2082 H   0  0  0  0  0  0  0  0  0  0  0  0
    1.8947   -0.2584   -1.0889 N   0  0  1  0  0  0  0  0  0  0  0  0
    1.5394   -0.8598   -2.4333 C   0  0  0  0  0  0  0  0  0  0  0  0
    1.7582   -0.1140   -3.1998 H   0  0  0  0  0  0  0  0  0  0  0  0
    2.1907   -1.7141   -2.6424 H   0  0  0  0  0  0  0  0  0  0  0  0
    0.0922   -1.3098   -2.5666 C   0  0  0  0  0  0  0  0  0  0  0  0
   -0.0726   -2.2845   -2.1149 H   0  0  0  0  0  0  0  0  0  0  0  0
   -0.1870   -1.3544   -3.6260 H   0  0  0  0  0  0  0  0  0  0  0  0
   -0.8546   -0.3725   -1.8882 N   0  0  1  0  0  0  0  0  0  0  0  0
   -2.2718   -0.8770   -1.9214 C   0  0  0  0  0  0  0  0  0  0  0  0
   -2.2275   -1.9151   -1.5924 H   0  0  0  0  0  0  0  0  0  0  0  0
   -2.5589   -0.8532   -2.9789 H   0  0  0  0  0  0  0  0  0  0  0  0
   -3.2736   -0.0992   -1.0765 C   0  0  0  0  0  0  0  0  0  0  0  0
   -3.3822    0.9400   -1.4063 H   0  0  0  0  0  0  0  0  0  0  0  0
   -4.2473   -0.5587   -1.2833 H   0  0  0  0  0  0  0  0  0  0  0  0
   -3.0392   -0.2148    0.4260 C   0  0  0  0  0  0  0  0  0  0  0  0
   -2.8925   -1.2646    0.6758 H   0  0  0  0  0  0  0  0  0  0  0  0
   -3.9257    0.1391    0.9665 H   0  0  0  0  0  0  0  0  0  0  0  0
   -1.8474    0.5439    0.9532 N   0  0  1  0  0  0  0  0  0  0  0  0
   -1.5973    0.0466    2.3496 C   0  0  0  0  0  0  0  0  0  0  0  0
   -2.3676    0.4384    3.0257 H   0  0  0  0  0  0  0  0  0  0  0  0
   -1.6810   -1.0355    2.3286 H   0  0  0  0  0  0  0  0  0  0  0  0
   -0.2146    0.4328    2.8597 C   0  0  0  0  0  0  0  0  0  0  0  0
    0.0610   -0.2530    3.6639 H   0  0  0  0  0  0  0  0  0  0  0  0
   -0.2145    1.4370    3.2910 H   0  0  0  0  0  0  0  0  0  0  0  0
    2.8076    0.8855   -1.4143 C   0  0  0  0  0  0  0  0  0  0  0  0
    3.6519    0.5313   -2.0168 H   0  0  0  0  0  0  0  0  0  0  0  0
    3.2135    1.3376   -0.5140 H   0  0  0  0  0  0  0  0  0  0  0  0
    2.2745    1.6513   -1.9780 H   0  0  0  0  0  0  0  0  0  0  0  0
   -0.6223    0.9573   -1.8938 C   0  0  0  0  0  0  0  0  0  0  0  0
    0.2197    1.3464   -2.4499 H   0  0  0  0  0  0  0  0  0  0  0  0
   -0.8951    3.5372   -1.7080 H   0  0  0  0  0  0  0  0  0  0  0  0
   -1.4876    1.5952   -1.7985 H   0  0  0  0  0  0  0  0  0  0  0  0
   -2.2100    1.9882    1.0236 C   0  0  0  0  0  0  0  0  0  0  0  0
   -2.3451    2.3990    0.0240 H   0  0  0  0  0  0  0  0  0  0  0  0
   -1.4228    2.5519    1.5249 H   0  0  0  0  0  0  0  0  0  0  0  0
   -3.1413    2.1249    1.5855 H   0  0  0  0  0  0  0  0  0  0  0  0
    1.3161    1.7396    1.4424 C   0  0  0  0  0  0  0  0  0  0  0  0
    2.4028    1.7686    1.2999 H   0  0  0  0  0  0  0  0  0  0  0  0
    1.1132    2.4826    2.2286 H   0  0  0  0  0  0  0  0  0  0  0  0
    0.6112    2.0011    0.1656 C   0  3  0  0  0  0  0  0  0  0  0  0
    0.7706    3.3279   -0.3548 C   0  0  0  0  0  0  0  0  0  0  0  0
    1.5764    3.9157    0.0933 H   0  0  0  0  0  0  0  0  0  0  0  0
   -0.0186    3.9755   -1.2474 C   0  0  0  0  0  0  0  0  0  0  0  0
    0.1760    5.0153   -1.4968 H   0  0  0  0  0  0  0  0  0  0  0  0
   -0.3435   -2.2501    0.4661 Br  0  5  0  0  0  0  0  0  0  0  0  0
  1 51  1  0  0  0  0
  2 48  1  1  0  0  0
  2  3  1  0  0  0  0
  2 33  1  0  0  0  0
  2  1  9  0  0  0  0
  3  4  1  0  0  0  0
  3  5  1  0  0  0  0
  6  7  1  0  0  0  0
  6  3  1  0  0  0  0
  8  6  1  0  0  0  0
  9 11  1  0  0  0  0
  9  6  1  0  0  0  0
 10  9  1  0  0  0  0
 12 36  1  6  0  0  0
 12  9  1  0  0  0  0
 12  1  9  0  0  0  0
 13 12  1  0  0  0  0
 14 13  1  0  0  0  0
 15 13  1  0  0  0  0
 16 13  1  0  0  0  0
 16 17  1  0  0  0  0
 18 16  1  0  0  0  0
 19 16  1  6  0  0  0
 19  1  9  0  0  0  0
 20 19  1  0  0  0  0
 20 21  1  0  0  0  0
 20 23  1  0  0  0  0
 22 20  1  0  0  0  0
 23 26  1  0  0  0  0
 24 23  1  0  0  0  0
 25 23  1  0  0  0  0
 26 27  1  0  0  0  0
 26 29  1  0  0  0  0
 26 28  1  0  0  0  0
 29 44  1  1  0  0  0
 29 30  1  0  0  0  0
 29  1  9  0  0  0  0
 30 33  1  0  0  0  0
 30 31  1  0  0  0  0
 32 30  1  0  0  0  0
 33 35  1  0  0  0  0
 33 34  1  0  0  0  0
 36 38  1  0  0  0  0
 37 36  1  0  0  0  0
 39 36  1  0  0  0  0
 40 19  1  0  0  0  0
 40 43  1  0  0  0  0
 40  1  1  0  0  0  0
 41 40  1  0  0  0  0
 42 54  1  0  0  0  0
 44 46  1  0  0  0  0
 44 47  1  0  0  0  0
 45 44  1  0  0  0  0
 48 50  1  0  0  0  0
 49 48  1  0  0  0  0
 51 48  1  0  0  0  0
 52 53  1  0  0  0  0
 52 51  1  0  0  0  0
 54 52  2  0  0  0  0
 55 54  1  0  0  0  0
M  CHG  3   1   2  51   1  56  -1
M  END
$$$$
