
 OpenBabel02052520083D

 62 66  0  0  0  0  0  0  0  0999 V2000
    0.5625    0.0858    0.1667 Fe  0  2  0  0  0  0  0  0  0  0  0  0
   -1.1171   -0.0633    1.6205 N   0  0  2  0  0  0  0  0  0  0  0  0
   -0.9371    1.0639    2.5983 C   0  0  0  0  0  0  0  0  0  0  0  0
    0.0319    0.8928    3.0684 H   0  0  0  0  0  0  0  0  0  0  0  0
   -1.7142    0.9856    3.3706 H   0  0  0  0  0  0  0  0  0  0  0  0
   -0.9745    2.4860    2.0114 C   0  0  0  0  0  0  0  0  0  0  0  0
   -1.9702    2.7218    1.6205 H   0  0  0  0  0  0  0  0  0  0  0  0
   -0.8617    3.1510    2.8762 H   0  0  0  0  0  0  0  0  0  0  0  0
    0.1136    2.9232    1.0139 C   0  0  0  0  0  0  0  0  0  0  0  0
    0.0026    4.0028    0.8430 H   0  0  0  0  0  0  0  0  0  0  0  0
    1.0984    2.7432    1.4448 H   0  0  0  0  0  0  0  0  0  0  0  0
    0.0862    2.2346   -0.3234 N   0  0  1  0  0  0  0  0  0  0  0  0
    1.2352    2.6821   -1.1885 C   0  0  0  0  0  0  0  0  0  0  0  0
    0.8829    2.7018   -2.2213 H   0  0  0  0  0  0  0  0  0  0  0  0
    1.5175    3.7100   -0.9322 H   0  0  0  0  0  0  0  0  0  0  0  0
    2.4591    1.7836   -1.0728 C   0  0  0  0  0  0  0  0  0  0  0  0
    3.2123    2.0972   -1.8075 H   0  0  0  0  0  0  0  0  0  0  0  0
    2.8942    1.8655   -0.0765 H   0  0  0  0  0  0  0  0  0  0  0  0
    2.1238    0.3347   -1.2759 N   0  0  1  0  0  0  0  0  0  0  0  0
    3.3423   -0.4828   -0.9540 C   0  0  0  0  0  0  0  0  0  0  0  0
    4.0436   -0.3794   -1.7922 H   0  0  0  0  0  0  0  0  0  0  0  0
    3.8029   -0.0259   -0.0755 H   0  0  0  0  0  0  0  0  0  0  0  0
    3.0947   -1.9652   -0.6620 C   0  0  0  0  0  0  0  0  0  0  0  0
    2.5678   -2.4592   -1.4847 H   0  0  0  0  0  0  0  0  0  0  0  0
    4.0831   -2.4379   -0.6327 H   0  0  0  0  0  0  0  0  0  0  0  0
    2.4331   -2.2487    0.6918 C   0  0  0  0  0  0  0  0  0  0  0  0
    2.6048   -3.2941    0.9798 H   0  0  0  0  0  0  0  0  0  0  0  0
    2.8872   -1.6101    1.4522 H   0  0  0  0  0  0  0  0  0  0  0  0
    0.9556   -1.9929    0.7336 N   0  0  1  0  0  0  0  0  0  0  0  0
    0.4915   -1.9557    2.1569 C   0  0  0  0  0  0  0  0  0  0  0  0
    0.5244   -2.9630    2.5933 H   0  0  0  0  0  0  0  0  0  0  0  0
    1.1880   -1.3214    2.7046 H   0  0  0  0  0  0  0  0  0  0  0  0
   -0.9284   -1.4065    2.2808 C   0  0  0  0  0  0  0  0  0  0  0  0
   -1.6342   -2.1034    1.8250 H   0  0  0  0  0  0  0  0  0  0  0  0
   -1.1957   -1.3348    3.3413 H   0  0  0  0  0  0  0  0  0  0  0  0
   -1.1645    2.5500   -1.0591 C   0  0  0  0  0  0  0  0  0  0  0  0
   -1.2009    3.6163   -1.3156 H   0  0  0  0  0  0  0  0  0  0  0  0
   -2.0403    2.3209   -0.4573 H   0  0  0  0  0  0  0  0  0  0  0  0
   -1.2075    1.9552   -1.9723 H   0  0  0  0  0  0  0  0  0  0  0  0
    1.6364    0.0524   -2.6502 C   0  0  0  0  0  0  0  0  0  0  0  0
    2.3668    0.3841   -3.3983 H   0  0  0  0  0  0  0  0  0  0  0  0
    0.6825    0.5522   -2.8198 H   0  0  0  0  0  0  0  0  0  0  0  0
    1.4726   -1.0201   -2.7602 H   0  0  0  0  0  0  0  0  0  0  0  0
    0.2336   -3.0252   -0.0507 C   0  0  0  0  0  0  0  0  0  0  0  0
    0.4723   -4.0279    0.3251 H   0  0  0  0  0  0  0  0  0  0  0  0
    0.5168   -2.9566   -1.1007 H   0  0  0  0  0  0  0  0  0  0  0  0
   -0.8413   -2.8679    0.0086 H   0  0  0  0  0  0  0  0  0  0  0  0
   -2.4105   -0.0342    0.9075 C   0  0  0  0  0  0  0  0  0  0  0  0
   -2.8141    0.9801    0.9054 H   0  0  0  0  0  0  0  0  0  0  0  0
   -3.1525   -0.6583    1.4156 H   0  0  0  0  0  0  0  0  0  0  0  0
   -2.2035   -0.4737   -0.5475 C   0  0  0  0  0  0  0  0  0  0  0  0
   -1.0154   -0.4882   -1.0020 O   0  0  0  0  0  0  0  0  0  0  0  0
   -3.2388   -0.8011   -1.3036 N   0  0  0  0  0  0  0  0  0  0  0  0
   -3.0466   -1.2497   -2.6942 C   0  0  0  0  0  0  0  0  0  0  0  0
   -3.4115   -0.4791   -3.3803 H   0  0  0  0  0  0  0  0  0  0  0  0
   -3.6226   -2.1660   -2.8490 H   0  0  0  0  0  0  0  0  0  0  0  0
   -1.9917   -1.4401   -2.8792 H   0  0  0  0  0  0  0  0  0  0  0  0
   -4.6395   -0.7596   -0.8475 C   0  0  0  0  0  0  0  0  0  0  0  0
   -4.9755   -1.7626   -0.5653 H   0  0  0  0  0  0  0  0  0  0  0  0
   -5.2573   -0.4022   -1.6745 H   0  0  0  0  0  0  0  0  0  0  0  0
   -4.7723   -0.0759   -0.0098 H   0  0  0  0  0  0  0  0  0  0  0  0
    1.6925    0.5731    1.4832 F   0  0  0  0  0  0  0  0  0  0  0  0
  1 62  1  0  0  0  0
  2 48  1  6  0  0  0
  2 33  1  0  0  0  0
  2  3  1  0  0  0  0
  2  1  9  0  0  0  0
  3  4  1  0  0  0  0
  3  5  1  0  0  0  0
  6  3  1  0  0  0  0
  6  8  1  0  0  0  0
  7  6  1  0  0  0  0
  9 11  1  0  0  0  0
  9  6  1  0  0  0  0
 10  9  1  0  0  0  0
 12 36  1  6  0  0  0
 12  9  1  0  0  0  0
 12  1  9  0  0  0  0
 13 16  1  0  0  0  0
 13 15  1  0  0  0  0
 13 12  1  0  0  0  0
 14 13  1  0  0  0  0
 16 18  1  0  0  0  0
 17 16  1  0  0  0  0
 19 40  1  6  0  0  0
 19 16  1  0  0  0  0
 19 20  1  0  0  0  0
 19  1  9  0  0  0  0
 20 23  1  0  0  0  0
 20 22  1  0  0  0  0
 21 20  1  0  0  0  0
 23 25  1  0  0  0  0
 23 26  1  0  0  0  0
 24 23  1  0  0  0  0
 26 29  1  0  0  0  0
 26 27  1  0  0  0  0
 26 28  1  0  0  0  0
 29 44  1  6  0  0  0
 29 30  1  0  0  0  0
 29  1  9  0  0  0  0
 30 33  1  0  0  0  0
 30 31  1  0  0  0  0
 30 32  1  0  0  0  0
 33 35  1  0  0  0  0
 34 33  1  0  0  0  0
 36 38  1  0  0  0  0
 37 36  1  0  0  0  0
 39 36  1  0  0  0  0
 41 40  1  0  0  0  0
 42 40  1  0  0  0  0
 43 40  1  0  0  0  0
 44 47  1  0  0  0  0
 44 45  1  0  0  0  0
 46 44  1  0  0  0  0
 48 50  1  0  0  0  0
 49 48  1  0  0  0  0
 51 48  1  0  0  0  0
 52 51  2  0  0  0  0
 52  1  9  0  0  0  0
 53 58  1  0  0  0  0
 53 51  1  0  0  0  0
 54 53  1  0  0  0  0
 55 54  1  0  0  0  0
 56 54  1  0  0  0  0
 57 54  1  0  0  0  0
 58 59  1  0  0  0  0
 58 61  1  0  0  0  0
 60 58  1  0  0  0  0
M  CHG  1   1   2
M  END
$$$$
