
 OpenBabel02072512503D

 59 63  0  0  0  0  0  0  0  0999 V2000
    0.0601    0.0092   -0.1027 Fe  0  0  0  0  0  0  0  0  0  0  0  0
   -1.5270   -0.9982    1.1825 N   0  0  2  0  0  0  0  0  0  0  0  0
   -1.5029   -0.2553    2.4763 C   0  0  0  0  0  0  0  0  0  0  0  0
   -1.8238    1.2578    2.4240 C   0  0  0  0  0  0  0  0  0  0  0  0
   -0.8627    2.2502    1.7307 C   0  0  0  0  0  0  0  0  0  0  0  0
   -0.7421    2.1199    0.2550 N   0  0  1  0  0  0  0  0  0  0  0  0
    0.3004    3.0275   -0.3058 C   0  0  0  0  0  0  0  0  0  0  0  0
    1.6913    2.3985   -0.4727 C   0  0  0  0  0  0  0  0  0  0  0  0
    1.6599    1.1059   -1.2004 N   0  0  1  0  0  0  0  0  0  0  0  0
    2.9791    0.4241   -1.1230 C   0  0  0  0  0  0  0  0  0  0  0  0
    2.9610   -1.0904   -1.4005 C   0  0  0  0  0  0  0  0  0  0  0  0
    2.4104   -2.0079   -0.2900 C   0  0  0  0  0  0  0  0  0  0  0  0
    0.9280   -2.0681   -0.2061 N   0  0  1  0  0  0  0  0  0  0  0  0
    0.4729   -2.6076    1.0982 C   0  0  0  0  0  0  0  0  0  0  0  0
   -1.0312   -2.3975    1.3520 C   0  0  0  0  0  0  0  0  0  0  0  0
   -2.0255    2.4260   -0.4093 C   0  0  0  0  0  0  0  0  0  0  0  0
    1.2552    1.2912   -2.6074 C   0  0  0  0  0  0  0  0  0  0  0  0
    0.3955   -2.8581   -1.3284 C   0  0  0  0  0  0  0  0  0  0  0  0
   -2.9127   -1.0311    0.6389 C   0  0  0  0  0  0  0  0  0  0  0  0
   -3.0515   -1.4027   -0.8455 C   0  0  0  0  0  0  0  0  0  0  0  0
   -2.3901   -0.3910   -1.7998 C   0  0  0  0  0  0  0  0  0  0  0  0
   -1.0972   -0.2817   -1.6812 O   0  0  0  0  0  0  0  0  0  0  0  0
   -3.0821    0.2527   -2.5832 O   0  0  0  0  0  0  0  0  0  0  0  0
   -0.5029   -0.3821    2.8901 H   0  0  0  0  0  0  0  0  0  0  0  0
   -2.2292   -0.7213    3.1661 H   0  0  0  0  0  0  0  0  0  0  0  0
   -2.8461    1.4192    2.0663 H   0  0  0  0  0  0  0  0  0  0  0  0
   -1.8462    1.5728    3.4759 H   0  0  0  0  0  0  0  0  0  0  0  0
   -1.2130    3.2697    1.9731 H   0  0  0  0  0  0  0  0  0  0  0  0
    0.1364    2.1186    2.1451 H   0  0  0  0  0  0  0  0  0  0  0  0
   -0.0554    3.3625   -1.2827 H   0  0  0  0  0  0  0  0  0  0  0  0
    0.4007    3.9308    0.3149 H   0  0  0  0  0  0  0  0  0  0  0  0
    2.3328    3.1270   -0.9984 H   0  0  0  0  0  0  0  0  0  0  0  0
    2.1319    2.2145    0.5059 H   0  0  0  0  0  0  0  0  0  0  0  0
    3.6676    0.9016   -1.8409 H   0  0  0  0  0  0  0  0  0  0  0  0
    3.3981    0.5934   -0.1298 H   0  0  0  0  0  0  0  0  0  0  0  0
    2.4641   -1.2998   -2.3538 H   0  0  0  0  0  0  0  0  0  0  0  0
    4.0090   -1.3816   -1.5472 H   0  0  0  0  0  0  0  0  0  0  0  0
    2.8001   -3.0275   -0.4535 H   0  0  0  0  0  0  0  0  0  0  0  0
    2.8000   -1.6731    0.6721 H   0  0  0  0  0  0  0  0  0  0  0  0
    0.6808   -3.6894    1.1738 H   0  0  0  0  0  0  0  0  0  0  0  0
    1.0417   -2.0941    1.8719 H   0  0  0  0  0  0  0  0  0  0  0  0
   -1.5981   -3.0322    0.6690 H   0  0  0  0  0  0  0  0  0  0  0  0
   -1.2591   -2.7588    2.3664 H   0  0  0  0  0  0  0  0  0  0  0  0
   -2.3212    3.4741   -0.2376 H   0  0  0  0  0  0  0  0  0  0  0  0
   -2.8151    1.7800   -0.0316 H   0  0  0  0  0  0  0  0  0  0  0  0
   -1.9487    2.2262   -1.4777 H   0  0  0  0  0  0  0  0  0  0  0  0
    1.9324    1.9909   -3.1245 H   0  0  0  0  0  0  0  0  0  0  0  0
    0.2267    1.6439   -2.6608 H   0  0  0  0  0  0  0  0  0  0  0  0
    1.2687    0.3281   -3.1176 H   0  0  0  0  0  0  0  0  0  0  0  0
    0.7768   -3.8926   -1.3008 H   0  0  0  0  0  0  0  0  0  0  0  0
    0.6721   -2.3914   -2.2733 H   0  0  0  0  0  0  0  0  0  0  0  0
   -0.6903   -2.8679   -1.2996 H   0  0  0  0  0  0  0  0  0  0  0  0
   -3.3465   -0.0403    0.7742 H   0  0  0  0  0  0  0  0  0  0  0  0
   -3.5208   -1.7206    1.2497 H   0  0  0  0  0  0  0  0  0  0  0  0
   -2.6433   -2.4024   -1.0338 H   0  0  0  0  0  0  0  0  0  0  0  0
   -4.1197   -1.4429   -1.0781 H   0  0  0  0  0  0  0  0  0  0  0  0
    1.2807    0.2275    1.6712 N   0  0  0  0  0  0  0  0  0  0  0  0
    2.4230    0.2647    2.0379 N   0  3  0  0  0  0  0  0  0  0  0  0
    3.5341    0.2989    2.3867 N   0  5  0  0  0  0  0  0  0  0  0  0
  1 22  1  0  0  0  0
  1 57  1  0  0  0  0
  2 19  1  6  0  0  0
  2 15  1  0  0  0  0
  2  3  1  0  0  0  0
  2  1  9  0  0  0  0
  3 24  1  0  0  0  0
  3 25  1  0  0  0  0
  4  3  1  0  0  0  0
  4 27  1  0  0  0  0
  5 28  1  0  0  0  0
  5 29  1  0  0  0  0
  5  4  1  0  0  0  0
  6 16  1  6  0  0  0
  6  5  1  0  0  0  0
  6  1  9  0  0  0  0
  7  6  1  0  0  0  0
  7 31  1  0  0  0  0
  8  7  1  0  0  0  0
  8 33  1  0  0  0  0
  9 17  1  6  0  0  0
  9 10  1  0  0  0  0
  9  8  1  0  0  0  0
  9  1  9  0  0  0  0
 10 35  1  0  0  0  0
 11 10  1  0  0  0  0
 11 12  1  0  0  0  0
 12 13  1  0  0  0  0
 12 39  1  0  0  0  0
 13 18  1  6  0  0  0
 13 14  1  0  0  0  0
 13  1  9  0  0  0  0
 14 40  1  0  0  0  0
 14 15  1  0  0  0  0
 14 41  1  0  0  0  0
 15 43  1  0  0  0  0
 16 44  1  0  0  0  0
 16 45  1  0  0  0  0
 18 50  1  0  0  0  0
 18 52  1  0  0  0  0
 19 53  1  0  0  0  0
 19 54  1  0  0  0  0
 20 19  1  0  0  0  0
 21 22  1  0  0  0  0
 21 20  1  0  0  0  0
 23 21  2  0  0  0  0
 26  4  1  0  0  0  0
 30  7  1  0  0  0  0
 32  8  1  0  0  0  0
 34 10  1  0  0  0  0
 36 11  1  0  0  0  0
 37 11  1  0  0  0  0
 38 12  1  0  0  0  0
 42 15  1  0  0  0  0
 46 16  1  0  0  0  0
 47 17  1  0  0  0  0
 48 17  1  0  0  0  0
 49 17  1  0  0  0  0
 51 18  1  0  0  0  0
 55 20  1  0  0  0  0
 56 20  1  0  0  0  0
 57 58  2  0  0  0  0
 58 59  2  0  0  0  0
M  CHG  2  58   1  59  -1
M  END
$$$$
