
 OpenBabel02052520083D

 62 66  0  0  0  0  0  0  0  0999 V2000
    0.5482    0.0906    0.1201 Fe  0  2  0  0  0  0  0  0  0  0  0  0
   -1.0549    0.3602    1.6354 N   0  0  2  0  0  0  0  0  0  0  0  0
   -0.8251    1.6823    2.3249 C   0  0  0  0  0  0  0  0  0  0  0  0
    0.1258    1.5900    2.8480 H   0  0  0  0  0  0  0  0  0  0  0  0
   -1.6127    1.8190    3.0783 H   0  0  0  0  0  0  0  0  0  0  0  0
   -0.8120    2.9318    1.4194 C   0  0  0  0  0  0  0  0  0  0  0  0
   -1.8114    3.1186    1.0117 H   0  0  0  0  0  0  0  0  0  0  0  0
   -0.6447    3.7700    2.1070 H   0  0  0  0  0  0  0  0  0  0  0  0
    0.2477    3.1023    0.3106 C   0  0  0  0  0  0  0  0  0  0  0  0
    0.1155    4.1048   -0.1192 H   0  0  0  0  0  0  0  0  0  0  0  0
    1.2490    3.0507    0.7338 H   0  0  0  0  0  0  0  0  0  0  0  0
    0.1829    2.1037   -0.8161 N   0  0  1  0  0  0  0  0  0  0  0  0
    1.3165    2.2824   -1.8045 C   0  0  0  0  0  0  0  0  0  0  0  0
    0.8793    2.2759   -2.8042 H   0  0  0  0  0  0  0  0  0  0  0  0
    1.7717    3.2689   -1.6684 H   0  0  0  0  0  0  0  0  0  0  0  0
    2.4203    1.2213   -1.7213 C   0  0  0  0  0  0  0  0  0  0  0  0
    3.0187    1.2635   -2.6410 H   0  0  0  0  0  0  0  0  0  0  0  0
    3.0808    1.4271   -0.8817 H   0  0  0  0  0  0  0  0  0  0  0  0
    1.8854   -0.1689   -1.5336 N   0  0  1  0  0  0  0  0  0  0  0  0
    3.0181   -1.0987   -1.1890 C   0  0  0  0  0  0  0  0  0  0  0  0
    3.6079   -1.2529   -2.1019 H   0  0  0  0  0  0  0  0  0  0  0  0
    3.6499   -0.5773   -0.4681 H   0  0  0  0  0  0  0  0  0  0  0  0
    2.6141   -2.4606   -0.6088 C   0  0  0  0  0  0  0  0  0  0  0  0
    1.9330   -2.9964   -1.2776 H   0  0  0  0  0  0  0  0  0  0  0  0
    3.5306   -3.0619   -0.5978 H   0  0  0  0  0  0  0  0  0  0  0  0
    2.0930   -2.4497    0.8355 C   0  0  0  0  0  0  0  0  0  0  0  0
    2.1267   -3.4685    1.2429 H   0  0  0  0  0  0  0  0  0  0  0  0
    2.7404   -1.8245    1.4515 H   0  0  0  0  0  0  0  0  0  0  0  0
    0.6884   -1.9367    0.9872 N   0  0  1  0  0  0  0  0  0  0  0  0
    0.3763   -1.6419    2.4210 C   0  0  0  0  0  0  0  0  0  0  0  0
    0.2540   -2.5792    2.9808 H   0  0  0  0  0  0  0  0  0  0  0  0
    1.2259   -1.1095    2.8424 H   0  0  0  0  0  0  0  0  0  0  0  0
   -0.9088   -0.8154    2.5846 C   0  0  0  0  0  0  0  0  0  0  0  0
   -1.7748   -1.4631    2.4389 H   0  0  0  0  0  0  0  0  0  0  0  0
   -0.9597   -0.4531    3.6164 H   0  0  0  0  0  0  0  0  0  0  0  0
   -1.0855    2.2902   -1.5724 C   0  0  0  0  0  0  0  0  0  0  0  0
   -1.0978    3.2762   -2.0528 H   0  0  0  0  0  0  0  0  0  0  0  0
   -1.9453    2.2305   -0.9104 H   0  0  0  0  0  0  0  0  0  0  0  0
   -1.1818    1.5146   -2.3310 H   0  0  0  0  0  0  0  0  0  0  0  0
    1.1716   -0.6414   -2.7483 C   0  0  0  0  0  0  0  0  0  0  0  0
    1.8540   -0.6661   -3.6064 H   0  0  0  0  0  0  0  0  0  0  0  0
    0.3326    0.0165   -2.9675 H   0  0  0  0  0  0  0  0  0  0  0  0
    0.7735   -1.6402   -2.5725 H   0  0  0  0  0  0  0  0  0  0  0  0
   -0.2630   -2.9410    0.4438 C   0  0  0  0  0  0  0  0  0  0  0  0
   -0.0788   -3.9197    0.9032 H   0  0  0  0  0  0  0  0  0  0  0  0
   -0.1503   -3.0185   -0.6364 H   0  0  0  0  0  0  0  0  0  0  0  0
   -1.2900   -2.6469    0.6512 H   0  0  0  0  0  0  0  0  0  0  0  0
   -2.3850    0.3093    0.9811 C   0  0  0  0  0  0  0  0  0  0  0  0
   -2.7451    1.3230    0.7951 H   0  0  0  0  0  0  0  0  0  0  0  0
   -3.1234   -0.1587    1.6385 H   0  0  0  0  0  0  0  0  0  0  0  0
   -2.2862   -0.4093   -0.3643 C   0  0  0  0  0  0  0  0  0  0  0  0
   -1.1316   -0.5566   -0.8719 O   0  0  0  0  0  0  0  0  0  0  0  0
   -3.3789   -0.8290   -0.9833 N   0  0  0  0  0  0  0  0  0  0  0  0
   -3.2916   -1.5408   -2.2704 C   0  0  0  0  0  0  0  0  0  0  0  0
   -3.6928   -0.9064   -3.0668 H   0  0  0  0  0  0  0  0  0  0  0  0
   -3.8892   -2.4543   -2.2077 H   0  0  0  0  0  0  0  0  0  0  0  0
   -2.2552   -1.7912   -2.4852 H   0  0  0  0  0  0  0  0  0  0  0  0
   -4.7441   -0.6422   -0.4593 C   0  0  0  0  0  0  0  0  0  0  0  0
   -5.0761   -1.5430    0.0671 H   0  0  0  0  0  0  0  0  0  0  0  0
   -5.4122   -0.4639   -1.3045 H   0  0  0  0  0  0  0  0  0  0  0  0
   -4.8075    0.2197    0.2045 H   0  0  0  0  0  0  0  0  0  0  0  0
    2.2282    0.8264    1.4953 Cl  0  0  0  0  0  0  0  0  0  0  0  0
  1 62  1  0  0  0  0
  2 48  1  6  0  0  0
  2  3  1  0  0  0  0
  2 33  1  0  0  0  0
  2  1  9  0  0  0  0
  3  4  1  0  0  0  0
  3  5  1  0  0  0  0
  6  8  1  0  0  0  0
  6  3  1  0  0  0  0
  7  6  1  0  0  0  0
  9 11  1  0  0  0  0
  9  6  1  0  0  0  0
 10  9  1  0  0  0  0
 12 36  1  6  0  0  0
 12  9  1  0  0  0  0
 12  1  9  0  0  0  0
 13 16  1  0  0  0  0
 13 15  1  0  0  0  0
 13 12  1  0  0  0  0
 14 13  1  0  0  0  0
 16 19  1  0  0  0  0
 16 18  1  0  0  0  0
 17 16  1  0  0  0  0
 19 40  1  6  0  0  0
 19 20  1  0  0  0  0
 19  1  9  0  0  0  0
 20 23  1  0  0  0  0
 20 22  1  0  0  0  0
 21 20  1  0  0  0  0
 23 25  1  0  0  0  0
 23 26  1  0  0  0  0
 24 23  1  0  0  0  0
 26 29  1  0  0  0  0
 26 27  1  0  0  0  0
 26 28  1  0  0  0  0
 29 44  1  6  0  0  0
 29 30  1  0  0  0  0
 29  1  9  0  0  0  0
 30 33  1  0  0  0  0
 30 32  1  0  0  0  0
 30 31  1  0  0  0  0
 33 35  1  0  0  0  0
 34 33  1  0  0  0  0
 36 38  1  0  0  0  0
 37 36  1  0  0  0  0
 39 36  1  0  0  0  0
 40 43  1  0  0  0  0
 41 40  1  0  0  0  0
 42 40  1  0  0  0  0
 44 47  1  0  0  0  0
 44 45  1  0  0  0  0
 46 44  1  0  0  0  0
 48 50  1  0  0  0  0
 49 48  1  0  0  0  0
 51 48  1  0  0  0  0
 52 51  2  0  0  0  0
 52  1  9  0  0  0  0
 53 58  1  0  0  0  0
 53 51  1  0  0  0  0
 54 56  1  0  0  0  0
 54 53  1  0  0  0  0
 55 54  1  0  0  0  0
 57 54  1  0  0  0  0
 58 59  1  0  0  0  0
 58 61  1  0  0  0  0
 60 58  1  0  0  0  0
M  CHG  1   1   2
M  END
$$$$
