
 OpenBabel02052520083D

 62 66  0  0  0  0  0  0  0  0999 V2000
    0.3673    0.0303    0.0534 Fe  0  2  0  0  0  0  0  0  0  0  0  0
   -0.9327   -0.8168   -1.5384 N   0  0  2  0  0  0  0  0  0  0  0  0
   -0.4662   -2.2207   -1.8424 C   0  0  0  0  0  0  0  0  0  0  0  0
    0.5353   -2.1253   -2.2586 H   0  0  0  0  0  0  0  0  0  0  0  0
   -1.1166   -2.6372   -2.6235 H   0  0  0  0  0  0  0  0  0  0  0  0
   -0.4561   -3.2092   -0.6569 C   0  0  0  0  0  0  0  0  0  0  0  0
   -1.4794   -3.4315   -0.3358 H   0  0  0  0  0  0  0  0  0  0  0  0
   -0.1020   -4.1536   -1.0883 H   0  0  0  0  0  0  0  0  0  0  0  0
    0.4401   -2.9698    0.5766 C   0  0  0  0  0  0  0  0  0  0  0  0
    0.3458   -3.8503    1.2268 H   0  0  0  0  0  0  0  0  0  0  0  0
    1.4826   -2.8897    0.2761 H   0  0  0  0  0  0  0  0  0  0  0  0
    0.1121   -1.7494    1.3991 N   0  0  1  0  0  0  0  0  0  0  0  0
    1.1031   -1.5325    2.5266 C   0  0  0  0  0  0  0  0  0  0  0  0
    0.5278   -1.4221    3.4472 H   0  0  0  0  0  0  0  0  0  0  0  0
    1.7201   -2.4281    2.6490 H   0  0  0  0  0  0  0  0  0  0  0  0
    2.0369   -0.3232    2.3573 C   0  0  0  0  0  0  0  0  0  0  0  0
    2.4463   -0.0567    3.3406 H   0  0  0  0  0  0  0  0  0  0  0  0
    2.8701   -0.5793    1.7072 H   0  0  0  0  0  0  0  0  0  0  0  0
    1.3578    0.8731    1.7559 N   0  0  1  0  0  0  0  0  0  0  0  0
    2.3913    1.8923    1.3527 C   0  0  0  0  0  0  0  0  0  0  0  0
    2.7859    2.3438    2.2721 H   0  0  0  0  0  0  0  0  0  0  0  0
    3.2069    1.3494    0.8728 H   0  0  0  0  0  0  0  0  0  0  0  0
    1.9030    3.0032    0.4127 C   0  0  0  0  0  0  0  0  0  0  0  0
    1.0513    3.5426    0.8391 H   0  0  0  0  0  0  0  0  0  0  0  0
    2.7148    3.7391    0.3777 H   0  0  0  0  0  0  0  0  0  0  0  0
    1.6365    2.5940   -1.0436 C   0  0  0  0  0  0  0  0  0  0  0  0
    1.5885    3.4936   -1.6707 H   0  0  0  0  0  0  0  0  0  0  0  0
    2.4615    1.9810   -1.4079 H   0  0  0  0  0  0  0  0  0  0  0  0
    0.3653    1.8170   -1.2491 N   0  0  1  0  0  0  0  0  0  0  0  0
    0.3316    1.1803   -2.6029 C   0  0  0  0  0  0  0  0  0  0  0  0
    0.1573    1.9431   -3.3740 H   0  0  0  0  0  0  0  0  0  0  0  0
    1.3081    0.7393   -2.7873 H   0  0  0  0  0  0  0  0  0  0  0  0
   -0.7712    0.1136   -2.7294 C   0  0  0  0  0  0  0  0  0  0  0  0
   -1.7310    0.6065   -2.8920 H   0  0  0  0  0  0  0  0  0  0  0  0
   -0.5712   -0.4830   -3.6248 H   0  0  0  0  0  0  0  0  0  0  0  0
   -1.2268   -1.9322    2.0264 C   0  0  0  0  0  0  0  0  0  0  0  0
   -1.2031   -2.7773    2.7251 H   0  0  0  0  0  0  0  0  0  0  0  0
   -1.9826   -2.1413    1.2739 H   0  0  0  0  0  0  0  0  0  0  0  0
   -1.5154   -1.0275    2.5588 H   0  0  0  0  0  0  0  0  0  0  0  0
    0.3907    1.4714    2.7142 C   0  0  0  0  0  0  0  0  0  0  0  0
    0.9144    1.8233    3.6110 H   0  0  0  0  0  0  0  0  0  0  0  0
   -0.3588    0.7348    2.9966 H   0  0  0  0  0  0  0  0  0  0  0  0
   -0.1242    2.3071    2.2422 H   0  0  0  0  0  0  0  0  0  0  0  0
   -0.7949    2.7338   -1.0883 C   0  0  0  0  0  0  0  0  0  0  0  0
   -0.6693    3.6118   -1.7332 H   0  0  0  0  0  0  0  0  0  0  0  0
   -0.8830    3.0524   -0.0512 H   0  0  0  0  0  0  0  0  0  0  0  0
   -1.7202    2.2315   -1.3638 H   0  0  0  0  0  0  0  0  0  0  0  0
   -2.3489   -0.8136   -1.0911 C   0  0  0  0  0  0  0  0  0  0  0  0
   -2.6193   -1.8028   -0.7161 H   0  0  0  0  0  0  0  0  0  0  0  0
   -3.0203   -0.6157   -1.9315 H   0  0  0  0  0  0  0  0  0  0  0  0
   -2.5508    0.1867    0.0443 C   0  0  0  0  0  0  0  0  0  0  0  0
   -1.5179    0.6095    0.6484 O   0  0  0  0  0  0  0  0  0  0  0  0
   -3.7708    0.5624    0.3971 N   0  0  0  0  0  0  0  0  0  0  0  0
   -3.9773    1.5413    1.4786 C   0  0  0  0  0  0  0  0  0  0  0  0
   -4.4411    1.0451    2.3366 H   0  0  0  0  0  0  0  0  0  0  0  0
   -4.6452    2.3284    1.1182 H   0  0  0  0  0  0  0  0  0  0  0  0
   -3.0234    1.9725    1.7738 H   0  0  0  0  0  0  0  0  0  0  0  0
   -4.9995    0.0655   -0.2490 C   0  0  0  0  0  0  0  0  0  0  0  0
   -5.3180    0.7498   -1.0422 H   0  0  0  0  0  0  0  0  0  0  0  0
   -5.7856    0.0158    0.5071 H   0  0  0  0  0  0  0  0  0  0  0  0
   -4.8640   -0.9368   -0.6555 H   0  0  0  0  0  0  0  0  0  0  0  0
    2.5108   -0.7830   -0.9611 Br  0  0  0  0  0  0  0  0  0  0  0  0
  2 33  1  6  0  0  0
  2 48  1  0  0  0  0
  2  1  9  0  0  0  0
  3  2  1  0  0  0  0
  3  6  1  0  0  0  0
  4  3  1  0  0  0  0
  5  3  1  0  0  0  0
  6  7  1  0  0  0  0
  6  9  1  0  0  0  0
  8  6  1  0  0  0  0
  9 10  1  0  0  0  0
  9 12  1  0  0  0  0
 11  9  1  0  0  0  0
 12 36  1  1  0  0  0
 12 13  1  0  0  0  0
 12  1  9  0  0  0  0
 13 15  1  0  0  0  0
 13 14  1  0  0  0  0
 16 13  1  0  0  0  0
 16 17  1  0  0  0  0
 18 16  1  0  0  0  0
 19 16  1  0  0  0  0
 19 40  1  1  0  0  0
 19  1  9  0  0  0  0
 20 19  1  0  0  0  0
 20 21  1  0  0  0  0
 22 20  1  0  0  0  0
 23 24  1  0  0  0  0
 23 20  1  0  0  0  0
 25 23  1  0  0  0  0
 26 23  1  0  0  0  0
 27 26  1  0  0  0  0
 28 26  1  0  0  0  0
 29 44  1  1  0  0  0
 29 26  1  0  0  0  0
 29  1  9  0  0  0  0
 30 29  1  0  0  0  0
 31 30  1  0  0  0  0
 32 30  1  0  0  0  0
 33 30  1  0  0  0  0
 34 33  1  0  0  0  0
 35 33  1  0  0  0  0
 36 39  1  0  0  0  0
 36 37  1  0  0  0  0
 38 36  1  0  0  0  0
 40 42  1  0  0  0  0
 40 41  1  0  0  0  0
 43 40  1  0  0  0  0
 44 46  1  0  0  0  0
 45 44  1  0  0  0  0
 47 44  1  0  0  0  0
 48 49  1  0  0  0  0
 48 51  1  0  0  0  0
 50 48  1  0  0  0  0
 51 53  1  0  0  0  0
 51 52  2  0  0  0  0
 52  1  9  0  0  0  0
 53 54  1  0  0  0  0
 54 57  1  0  0  0  0
 54 55  1  0  0  0  0
 56 54  1  0  0  0  0
 58 53  1  0  0  0  0
 58 60  1  0  0  0  0
 59 58  1  0  0  0  0
 61 58  1  0  0  0  0
 62  1  1  0  0  0  0
M  CHG  1   1   2
M  END
$$$$
