
 OpenBabel02052520083D

 56 61  0  0  0  0  0  0  0  0999 V2000
   -0.0623    0.0400   -0.0349 Fe  0  2  0  0  0  0  0  0  0  0  0  0
    0.7713   -1.7528   -0.5436 N   0  0  2  0  0  0  0  0  0  0  0  0
    1.7958   -1.7004   -1.6315 C   0  0  0  0  0  0  0  0  0  0  0  0
    1.2426   -1.4145   -2.5271 H   0  0  0  0  0  0  0  0  0  0  0  0
    2.1922   -2.7147   -1.7692 H   0  0  0  0  0  0  0  0  0  0  0  0
    2.9614   -0.7376   -1.4231 C   0  0  0  0  0  0  0  0  0  0  0  0
    3.5710   -0.8114   -2.3315 H   0  0  0  0  0  0  0  0  0  0  0  0
    3.6241   -1.0839   -0.6226 H   0  0  0  0  0  0  0  0  0  0  0  0
    2.6065    0.7394   -1.2599 C   0  0  0  0  0  0  0  0  0  0  0  0
    3.5274    1.3357   -1.3069 H   0  0  0  0  0  0  0  0  0  0  0  0
    1.9438    1.0425   -2.0687 H   0  0  0  0  0  0  0  0  0  0  0  0
    1.9084    1.0723    0.0315 N   0  0  1  0  0  0  0  0  0  0  0  0
    1.5865    2.5390    0.0558 C   0  0  0  0  0  0  0  0  0  0  0  0
    1.6239    2.8856    1.0913 H   0  0  0  0  0  0  0  0  0  0  0  0
    2.3531    3.1050   -0.4858 H   0  0  0  0  0  0  0  0  0  0  0  0
    0.2363    2.8269   -0.5452 C   0  0  0  0  0  0  0  0  0  0  0  0
    0.2150    2.5987   -1.6103 H   0  0  0  0  0  0  0  0  0  0  0  0
   -0.0434    3.8750   -0.3910 H   0  0  0  0  0  0  0  0  0  0  0  0
   -0.8232    1.9663    0.0546 N   0  0  1  0  0  0  0  0  0  0  0  0
   -2.1484    2.2727   -0.5739 C   0  0  0  0  0  0  0  0  0  0  0  0
   -1.9468    2.3790   -1.6408 H   0  0  0  0  0  0  0  0  0  0  0  0
   -2.4393    3.2516   -0.1761 H   0  0  0  0  0  0  0  0  0  0  0  0
   -3.2474    1.2460   -0.3669 C   0  0  0  0  0  0  0  0  0  0  0  0
   -3.5115    1.1155    0.6878 H   0  0  0  0  0  0  0  0  0  0  0  0
   -4.1450    1.6680   -0.8330 H   0  0  0  0  0  0  0  0  0  0  0  0
   -2.9357   -0.0677   -1.0683 C   0  0  0  0  0  0  0  0  0  0  0  0
   -2.5535    0.1516   -2.0658 H   0  0  0  0  0  0  0  0  0  0  0  0
   -3.8473   -0.6686   -1.1746 H   0  0  0  0  0  0  0  0  0  0  0  0
   -1.9015   -0.9159   -0.3884 N   0  0  1  0  0  0  0  0  0  0  0  0
   -1.5297   -1.9781   -1.3816 C   0  0  0  0  0  0  0  0  0  0  0  0
   -2.3745   -2.6592   -1.5435 H   0  0  0  0  0  0  0  0  0  0  0  0
   -1.2981   -1.4671   -2.3140 H   0  0  0  0  0  0  0  0  0  0  0  0
   -0.3112   -2.7306   -0.9056 C   0  0  0  0  0  0  0  0  0  0  0  0
    0.0454   -3.4049   -1.6894 H   0  0  0  0  0  0  0  0  0  0  0  0
   -0.5377   -3.3498   -0.0357 H   0  0  0  0  0  0  0  0  0  0  0  0
    2.8529    0.8713    1.1722 C   0  0  0  0  0  0  0  0  0  0  0  0
    3.6801    1.5879    1.1056 H   0  0  0  0  0  0  0  0  0  0  0  0
    3.2846   -0.1251    1.1676 H   0  0  0  0  0  0  0  0  0  0  0  0
    2.3301    1.0232    2.1184 H   0  0  0  0  0  0  0  0  0  0  0  0
   -0.7412    1.4529    1.3032 C   0  0  0  0  0  0  0  0  0  0  0  0
    0.0603    1.7640    1.9599 H   0  0  0  0  0  0  0  0  0  0  0  0
   -1.2733    0.1137    3.5063 H   0  0  0  0  0  0  0  0  0  0  0  0
   -1.6794    1.1826    1.7670 H   0  0  0  0  0  0  0  0  0  0  0  0
   -2.5041   -1.5347    0.8236 C   0  0  0  0  0  0  0  0  0  0  0  0
   -2.7763   -0.7632    1.5435 H   0  0  0  0  0  0  0  0  0  0  0  0
   -1.7930   -2.2053    1.3043 H   0  0  0  0  0  0  0  0  0  0  0  0
   -3.4057   -2.1017    0.5623 H   0  0  0  0  0  0  0  0  0  0  0  0
    1.2367   -1.9657    0.8452 C   0  0  0  0  0  0  0  0  0  0  0  0
    2.3126   -1.7935    0.9486 H   0  0  0  0  0  0  0  0  0  0  0  0
    1.0716   -2.9907    1.2097 H   0  0  0  0  0  0  0  0  0  0  0  0
    0.4561   -0.9177    1.5625 C   0  0  1  0  0  3  0  0  0  0  0  0
    0.5112   -0.9668    2.9917 C   0  0  0  0  0  0  0  0  0  0  0  0
    1.3042   -1.5761    3.4330 H   0  0  0  0  0  0  0  0  0  0  0  0
   -0.4034   -0.4379    3.8425 C   0  0  0  0  0  0  0  0  0  0  0  0
   -0.3292   -0.6076    4.9135 H   0  0  0  0  0  0  0  0  0  0  0  0
   -0.1140    0.3958   -1.8384 F   0  0  0  0  0  0  0  0  0  0  0  0
  1 40  1  0  0  0  0
  1 51  1  0  0  0  0
  2  3  1  6  0  0  0
  2 48  1  0  0  0  0
  2  1  9  0  0  0  0
  3  6  1  0  0  0  0
  4  3  1  0  0  0  0
  5  3  1  0  0  0  0
  6  9  1  0  0  0  0
  6  8  1  0  0  0  0
  7  6  1  0  0  0  0
  9 12  1  0  0  0  0
 10  9  1  0  0  0  0
 11  9  1  0  0  0  0
 12 13  1  0  0  0  0
 12 36  1  1  0  0  0
 12  1  9  0  0  0  0
 13 14  1  0  0  0  0
 15 13  1  0  0  0  0
 16 18  1  0  0  0  0
 16 19  1  0  0  0  0
 16 13  1  0  0  0  0
 17 16  1  0  0  0  0
 19 20  1  6  0  0  0
 19 40  1  0  0  0  0
 19  1  9  0  0  0  0
 20 23  1  0  0  0  0
 20 22  1  0  0  0  0
 21 20  1  0  0  0  0
 23 24  1  0  0  0  0
 25 23  1  0  0  0  0
 26 29  1  0  0  0  0
 26 23  1  0  0  0  0
 27 26  1  0  0  0  0
 28 26  1  0  0  0  0
 29 44  1  1  0  0  0
 29  1  9  0  0  0  0
 30 33  1  0  0  0  0
 30 29  1  0  0  0  0
 31 30  1  0  0  0  0
 32 30  1  0  0  0  0
 33  2  1  0  0  0  0
 33 35  1  0  0  0  0
 34 33  1  0  0  0  0
 36 39  1  0  0  0  0
 37 36  1  0  0  0  0
 38 36  1  0  0  0  0
 40 43  1  0  0  0  0
 40 41  1  0  0  0  0
 42 54  1  0  0  0  0
 44 46  1  0  0  0  0
 44 45  1  0  0  0  0
 47 44  1  0  0  0  0
 48 49  1  0  0  0  0
 48 50  1  0  0  0  0
 48 51  1  0  0  0  0
 51 52  1  1  0  0  0
 52 53  1  0  0  0  0
 52 54  2  0  0  0  0
 54 55  1  0  0  0  0
 56  1  1  0  0  0  0
M  RAD  1  51   2
M  CHG  1   1   2
M  END
$$$$
