
 OpenBabel02052520083D

 64 68  0  0  0  0  0  0  0  0999 V2000
    0.2555    0.1222    0.1150 Fe  0  2  0  0  0  0  0  0  0  0  0  0
   -0.7413   -1.1503   -1.4101 N   0  0  2  0  0  0  0  0  0  0  0  0
   -0.0417   -2.4814   -1.3837 C   0  0  0  0  0  0  0  0  0  0  0  0
    0.9880   -2.2842   -1.6824 H   0  0  0  0  0  0  0  0  0  0  0  0
   -0.4916   -3.1300   -2.1479 H   0  0  0  0  0  0  0  0  0  0  0  0
   -0.0630   -3.2440   -0.0425 C   0  0  0  0  0  0  0  0  0  0  0  0
   -1.0808   -3.5741    0.1910 H   0  0  0  0  0  0  0  0  0  0  0  0
    0.4797   -4.1760   -0.2428 H   0  0  0  0  0  0  0  0  0  0  0  0
    0.5980   -2.6503    1.2194 C   0  0  0  0  0  0  0  0  0  0  0  0
    0.5603   -3.4195    2.0036 H   0  0  0  0  0  0  0  0  0  0  0  0
    1.6464   -2.4274    1.0257 H   0  0  0  0  0  0  0  0  0  0  0  0
   -0.0316   -1.3966    1.7583 N   0  0  1  0  0  0  0  0  0  0  0  0
    0.7391   -0.8367    2.9300 C   0  0  0  0  0  0  0  0  0  0  0  0
    0.0108   -0.5190    3.6778 H   0  0  0  0  0  0  0  0  0  0  0  0
    1.3386   -1.6274    3.3952 H   0  0  0  0  0  0  0  0  0  0  0  0
    1.6565    0.3371    2.5813 C   0  0  0  0  0  0  0  0  0  0  0  0
    2.0008    0.8055    3.5133 H   0  0  0  0  0  0  0  0  0  0  0  0
    2.5337   -0.0167    2.0416 H   0  0  0  0  0  0  0  0  0  0  0  0
    0.9881    1.3598    1.7127 N   0  0  1  0  0  0  0  0  0  0  0  0
    2.0159    2.3392    1.2222 C   0  0  0  0  0  0  0  0  0  0  0  0
    2.2893    2.9898    2.0633 H   0  0  0  0  0  0  0  0  0  0  0  0
    2.9026    1.7616    0.9518 H   0  0  0  0  0  0  0  0  0  0  0  0
    1.6024    3.2020    0.0230 C   0  0  0  0  0  0  0  0  0  0  0  0
    0.6804    3.7559    0.2258 H   0  0  0  0  0  0  0  0  0  0  0  0
    2.3785    3.9699   -0.0755 H   0  0  0  0  0  0  0  0  0  0  0  0
    1.5378    2.4787   -1.3301 C   0  0  0  0  0  0  0  0  0  0  0  0
    1.5554    3.2182   -2.1417 H   0  0  0  0  0  0  0  0  0  0  0  0
    2.4204    1.8464   -1.4429 H   0  0  0  0  0  0  0  0  0  0  0  0
    0.3321    1.6060   -1.5166 N   0  0  1  0  0  0  0  0  0  0  0  0
    0.5182    0.6888   -2.6824 C   0  0  0  0  0  0  0  0  0  0  0  0
    0.4630    1.2508   -3.6251 H   0  0  0  0  0  0  0  0  0  0  0  0
    1.5166    0.2608   -2.6096 H   0  0  0  0  0  0  0  0  0  0  0  0
   -0.5354   -0.4253   -2.7214 C   0  0  0  0  0  0  0  0  0  0  0  0
   -1.4963   -0.0021   -3.0187 H   0  0  0  0  0  0  0  0  0  0  0  0
   -0.2584   -1.1462   -3.4985 H   0  0  0  0  0  0  0  0  0  0  0  0
   -1.4073   -1.6857    2.2420 C   0  0  0  0  0  0  0  0  0  0  0  0
   -1.3764   -2.3704    3.0990 H   0  0  0  0  0  0  0  0  0  0  0  0
   -2.0045   -2.1525    1.4628 H   0  0  0  0  0  0  0  0  0  0  0  0
   -1.8947   -0.7564    2.5362 H   0  0  0  0  0  0  0  0  0  0  0  0
   -0.1045    2.0600    2.4338 C   0  0  0  0  0  0  0  0  0  0  0  0
    0.2812    2.5609    3.3304 H   0  0  0  0  0  0  0  0  0  0  0  0
   -0.8813    1.3502    2.7146 H   0  0  0  0  0  0  0  0  0  0  0  0
   -0.5584    2.7997    1.7743 H   0  0  0  0  0  0  0  0  0  0  0  0
   -0.8722    2.4552   -1.6986 C   0  0  0  0  0  0  0  0  0  0  0  0
   -0.7161    3.1678   -2.5180 H   0  0  0  0  0  0  0  0  0  0  0  0
   -1.0861    2.9985   -0.7792 H   0  0  0  0  0  0  0  0  0  0  0  0
   -1.7420    1.8424   -1.9266 H   0  0  0  0  0  0  0  0  0  0  0  0
   -2.1888   -1.2621   -1.1224 C   0  0  0  0  0  0  0  0  0  0  0  0
   -2.3894   -2.1856   -0.5758 H   0  0  0  0  0  0  0  0  0  0  0  0
   -2.7678   -1.3259   -2.0487 H   0  0  0  0  0  0  0  0  0  0  0  0
   -2.6408   -0.0858   -0.2512 C   0  0  0  0  0  0  0  0  0  0  0  0
   -1.7500    0.5889    0.3471 O   0  0  0  0  0  0  0  0  0  0  0  0
   -3.9320    0.1846   -0.1170 N   0  0  0  0  0  0  0  0  0  0  0  0
   -4.3811    1.3290    0.6939 C   0  0  0  0  0  0  0  0  0  0  0  0
   -4.8810    0.9650    1.5969 H   0  0  0  0  0  0  0  0  0  0  0  0
   -5.0908    1.9192    0.1076 H   0  0  0  0  0  0  0  0  0  0  0  0
   -3.5270    1.9443    0.9680 H   0  0  0  0  0  0  0  0  0  0  0  0
   -5.0054   -0.5966   -0.7559 C   0  0  0  0  0  0  0  0  0  0  0  0
   -5.3057   -0.1338   -1.7018 H   0  0  0  0  0  0  0  0  0  0  0  0
   -5.8658   -0.6077   -0.0835 H   0  0  0  0  0  0  0  0  0  0  0  0
   -4.7045   -1.6299   -0.9286 H   0  0  0  0  0  0  0  0  0  0  0  0
    2.0170   -0.4623   -0.3219 N   0  0  0  0  0  0  0  0  0  0  0  0
    3.1359   -0.7974   -0.6296 C   0  0  0  0  0  0  0  0  0  0  0  0
    4.6014   -1.2343   -1.0314 S   0  0  0  0  0  0  0  0  0  0  0  0
  2 33  1  6  0  0  0
  2  3  1  0  0  0  0
  2 48  1  0  0  0  0
  2  1  9  0  0  0  0
  3  6  1  0  0  0  0
  4  3  1  0  0  0  0
  5  3  1  0  0  0  0
  6  7  1  0  0  0  0
  6  9  1  0  0  0  0
  8  6  1  0  0  0  0
  9 12  1  0  0  0  0
  9 10  1  0  0  0  0
 11  9  1  0  0  0  0
 12 36  1  1  0  0  0
 12 13  1  0  0  0  0
 12  1  9  0  0  0  0
 13 15  1  0  0  0  0
 13 14  1  0  0  0  0
 16 13  1  0  0  0  0
 16 17  1  0  0  0  0
 18 16  1  0  0  0  0
 19 40  1  1  0  0  0
 19 16  1  0  0  0  0
 19  1  9  0  0  0  0
 20 19  1  0  0  0  0
 20 21  1  0  0  0  0
 22 20  1  0  0  0  0
 23 24  1  0  0  0  0
 23 20  1  0  0  0  0
 25 23  1  0  0  0  0
 26 23  1  0  0  0  0
 27 26  1  0  0  0  0
 28 26  1  0  0  0  0
 29 44  1  6  0  0  0
 29 26  1  0  0  0  0
 29  1  9  0  0  0  0
 30 32  1  0  0  0  0
 30 29  1  0  0  0  0
 31 30  1  0  0  0  0
 33 30  1  0  0  0  0
 34 33  1  0  0  0  0
 35 33  1  0  0  0  0
 36 39  1  0  0  0  0
 36 37  1  0  0  0  0
 38 36  1  0  0  0  0
 40 42  1  0  0  0  0
 40 41  1  0  0  0  0
 43 40  1  0  0  0  0
 44 46  1  0  0  0  0
 45 44  1  0  0  0  0
 47 44  1  0  0  0  0
 48 49  1  0  0  0  0
 48 51  1  0  0  0  0
 50 48  1  0  0  0  0
 51 53  1  0  0  0  0
 51 52  2  0  0  0  0
 52  1  9  0  0  0  0
 53 54  1  0  0  0  0
 54 57  1  0  0  0  0
 54 55  1  0  0  0  0
 56 54  1  0  0  0  0
 58 53  1  0  0  0  0
 58 60  1  0  0  0  0
 59 58  1  0  0  0  0
 61 58  1  0  0  0  0
 62  1  1  0  0  0  0
 63 62  2  0  0  0  0
 64 63  2  0  0  0  0
M  CHG  1   1   2
M  END
$$$$
