
 OpenBabel02052520083D

 81 83  0  0  0  0  0  0  0  0999 V2000
    0.0007    0.0005    0.4071 Fe  0  2  0  0  0  0  0  0  0  0  0  0
    0.0010    0.0007    2.7117 N   0  0  0  0  0  0  0  0  0  0  0  0
    1.4204    0.1013    3.1287 C   0  0  0  0  0  0  0  0  0  0  0  0
    2.3012   -0.6487    2.1353 C   0  0  0  0  0  0  0  0  0  0  0  0
    2.0109   -0.1327    0.7881 N   0  0  0  0  0  0  0  0  0  0  0  0
    3.0452    0.0709   -0.0560 C   0  0  0  0  0  0  0  0  0  0  0  0
    4.1759   -0.6850   -0.0259 N   0  0  0  0  0  0  0  0  0  0  0  0
    4.1843   -2.1105    0.3033 C   0  0  0  0  0  0  0  0  0  0  0  0
    5.5016   -0.1239   -0.3204 C   0  0  0  0  0  0  0  0  0  0  0  0
    3.0009    1.0916   -0.9429 N   0  0  0  0  0  0  0  0  0  0  0  0
    3.5480    0.9875   -2.2992 C   0  0  0  0  0  0  0  0  0  0  0  0
    2.2963    2.3338   -0.6558 C   0  0  0  0  0  0  0  0  0  0  0  0
   -0.7960    1.1796    3.1286 C   0  0  0  0  0  0  0  0  0  0  0  0
   -0.5872    2.3173    2.1350 C   0  0  0  0  0  0  0  0  0  0  0  0
   -0.8900    1.8074    0.7882 N   0  0  0  0  0  0  0  0  0  0  0  0
   -1.5843    2.6006   -0.0559 C   0  0  0  0  0  0  0  0  0  0  0  0
   -1.4959    3.9578   -0.0263 N   0  0  0  0  0  0  0  0  0  0  0  0
   -0.2656    4.6786    0.3014 C   0  0  0  0  0  0  0  0  0  0  0  0
   -2.6453    4.8245   -0.3207 C   0  0  0  0  0  0  0  0  0  0  0  0
   -2.4464    2.0508   -0.9420 N   0  0  0  0  0  0  0  0  0  0  0  0
   -2.6325    2.5770   -2.2979 C   0  0  0  0  0  0  0  0  0  0  0  0
   -3.1686    0.8190   -0.6542 C   0  0  0  0  0  0  0  0  0  0  0  0
   -0.6215   -1.2790    3.1283 C   0  0  0  0  0  0  0  0  0  0  0  0
   -1.7119   -1.6661    2.1352 C   0  0  0  0  0  0  0  0  0  0  0  0
   -1.1200   -1.6738    0.7880 N   0  0  0  0  0  0  0  0  0  0  0  0
   -1.4612   -2.6716   -0.0556 C   0  0  0  0  0  0  0  0  0  0  0  0
   -2.6809   -3.2734   -0.0243 N   0  0  0  0  0  0  0  0  0  0  0  0
   -3.9199   -2.5685    0.3050 C   0  0  0  0  0  0  0  0  0  0  0  0
   -2.8573   -4.7022   -0.3183 C   0  0  0  0  0  0  0  0  0  0  0  0
   -0.5556   -3.1437   -0.9432 N   0  0  0  0  0  0  0  0  0  0  0  0
   -0.9205   -3.5666   -2.2989 C   0  0  0  0  0  0  0  0  0  0  0  0
    0.8726   -3.1536   -0.6575 C   0  0  0  0  0  0  0  0  0  0  0  0
    1.5526   -0.2796    4.1503 H   0  0  0  0  0  0  0  0  0  0  0  0
    1.7059    1.1558    3.1246 H   0  0  0  0  0  0  0  0  0  0  0  0
    3.3528   -0.4964    2.3998 H   0  0  0  0  0  0  0  0  0  0  0  0
    2.1071   -1.7268    2.2000 H   0  0  0  0  0  0  0  0  0  0  0  0
    3.1697   -2.4961    0.3390 H   0  0  0  0  0  0  0  0  0  0  0  0
    4.6775   -2.2948    1.2645 H   0  0  0  0  0  0  0  0  0  0  0  0
    4.7337   -2.6507   -0.4753 H   0  0  0  0  0  0  0  0  0  0  0  0
    5.4640    0.9650   -0.2915 H   0  0  0  0  0  0  0  0  0  0  0  0
    5.8723   -0.4496   -1.2983 H   0  0  0  0  0  0  0  0  0  0  0  0
    6.2002   -0.4706    0.4479 H   0  0  0  0  0  0  0  0  0  0  0  0
    3.8323   -0.0429   -2.5108 H   0  0  0  0  0  0  0  0  0  0  0  0
    4.4149    1.6430   -2.4345 H   0  0  0  0  0  0  0  0  0  0  0  0
    2.7643    1.2768   -3.0062 H   0  0  0  0  0  0  0  0  0  0  0  0
    2.0465    2.3646    0.4045 H   0  0  0  0  0  0  0  0  0  0  0  0
    1.3776    2.4067   -1.2458 H   0  0  0  0  0  0  0  0  0  0  0  0
    2.9493    3.1791   -0.9010 H   0  0  0  0  0  0  0  0  0  0  0  0
   -0.5324    1.4847    4.1503 H   0  0  0  0  0  0  0  0  0  0  0  0
   -1.8519    0.8994    3.1246 H   0  0  0  0  0  0  0  0  0  0  0  0
   -1.2442    3.1522    2.3997 H   0  0  0  0  0  0  0  0  0  0  0  0
    0.4439    2.6873    2.1986 H   0  0  0  0  0  0  0  0  0  0  0  0
    0.5759    3.9930    0.3371 H   0  0  0  0  0  0  0  0  0  0  0  0
   -0.3521    5.1986    1.2623 H   0  0  0  0  0  0  0  0  0  0  0  0
   -0.0732    5.4239   -0.4779 H   0  0  0  0  0  0  0  0  0  0  0  0
   -3.5691    4.2469   -0.2908 H   0  0  0  0  0  0  0  0  0  0  0  0
   -2.5496    5.3079   -1.2989 H   0  0  0  0  0  0  0  0  0  0  0  0
   -2.6943    5.6033    0.4471 H   0  0  0  0  0  0  0  0  0  0  0  0
   -1.8848    3.3407   -2.5101 H   0  0  0  0  0  0  0  0  0  0  0  0
   -3.6349    2.9973   -2.4316 H   0  0  0  0  0  0  0  0  0  0  0  0
   -2.4898    1.7543   -3.0054 H   0  0  0  0  0  0  0  0  0  0  0  0
   -3.0673    0.5863    0.4056 H   0  0  0  0  0  0  0  0  0  0  0  0
   -2.7737   -0.0125   -1.2460 H   0  0  0  0  0  0  0  0  0  0  0  0
   -4.2279    0.9617   -0.8965 H   0  0  0  0  0  0  0  0  0  0  0  0
   -1.0170   -1.2037    4.1503 H   0  0  0  0  0  0  0  0  0  0  0  0
    0.1489   -2.0536    3.1235 H   0  0  0  0  0  0  0  0  0  0  0  0
   -2.1073   -2.6522    2.4002 H   0  0  0  0  0  0  0  0  0  0  0  0
   -2.5472   -0.9574    2.1993 H   0  0  0  0  0  0  0  0  0  0  0  0
   -3.7471   -1.4969    0.3412 H   0  0  0  0  0  0  0  0  0  0  0  0
   -4.3260   -2.9039    1.2661 H   0  0  0  0  0  0  0  0  0  0  0  0
   -4.6623   -2.7741   -0.4736 H   0  0  0  0  0  0  0  0  0  0  0  0
   -1.8954   -5.2138   -0.2892 H   0  0  0  0  0  0  0  0  0  0  0  0
   -3.3247   -4.8611   -1.2961 H   0  0  0  0  0  0  0  0  0  0  0  0
   -3.5068   -5.1338    0.4501 H   0  0  0  0  0  0  0  0  0  0  0  0
   -1.9558   -3.2994   -2.5094 H   0  0  0  0  0  0  0  0  0  0  0  0
   -0.7849   -4.6450   -2.4337 H   0  0  0  0  0  0  0  0  0  0  0  0
   -0.2797   -3.0319   -3.0068 H   0  0  0  0  0  0  0  0  0  0  0  0
    1.0248   -2.9499    0.4022 H   0  0  0  0  0  0  0  0  0  0  0  0
    1.3944   -2.3956   -1.2496 H   0  0  0  0  0  0  0  0  0  0  0  0
    1.2782   -4.1422   -0.9007 H   0  0  0  0  0  0  0  0  0  0  0  0
    0.0003   -0.0000   -2.0730 Br  0  0  0  0  0  0  0  0  0  0  0  0
  2 23  1  0  0  0  0
  2 13  1  0  0  0  0
  2  3  1  0  0  0  0
  2  1  9  0  0  0  0
  3 33  1  0  0  0  0
  4 36  1  0  0  0  0
  4 35  1  0  0  0  0
  4  3  1  0  0  0  0
  5  4  1  0  0  0  0
  5  1  9  0  0  0  0
  6  7  1  0  0  0  0
  6  5  2  0  0  0  0
  7  8  1  0  0  0  0
  8 37  1  0  0  0  0
  8 38  1  0  0  0  0
  9 40  1  0  0  0  0
  9  7  1  0  0  0  0
  9 42  1  0  0  0  0
 10 12  1  0  0  0  0
 10  6  1  0  0  0  0
 11 10  1  0  0  0  0
 12 46  1  0  0  0  0
 13 49  1  0  0  0  0
 14 52  1  0  0  0  0
 14 51  1  0  0  0  0
 14 13  1  0  0  0  0
 15 14  1  0  0  0  0
 15  1  9  0  0  0  0
 16 17  1  0  0  0  0
 16 15  2  0  0  0  0
 17 18  1  0  0  0  0
 18 53  1  0  0  0  0
 18 54  1  0  0  0  0
 19 56  1  0  0  0  0
 19 17  1  0  0  0  0
 19 58  1  0  0  0  0
 20 22  1  0  0  0  0
 20 16  1  0  0  0  0
 21 20  1  0  0  0  0
 22 62  1  0  0  0  0
 23 65  1  0  0  0  0
 24 68  1  0  0  0  0
 24 67  1  0  0  0  0
 24 23  1  0  0  0  0
 25 24  1  0  0  0  0
 25  1  9  0  0  0  0
 26 27  1  0  0  0  0
 26 25  2  0  0  0  0
 27 28  1  0  0  0  0
 28 69  1  0  0  0  0
 28 70  1  0  0  0  0
 29 72  1  0  0  0  0
 29 27  1  0  0  0  0
 29 74  1  0  0  0  0
 30 32  1  0  0  0  0
 30 26  1  0  0  0  0
 31 30  1  0  0  0  0
 32 78  1  0  0  0  0
 34  3  1  0  0  0  0
 39  8  1  0  0  0  0
 41  9  1  0  0  0  0
 43 11  1  0  0  0  0
 44 11  1  0  0  0  0
 45 11  1  0  0  0  0
 47 12  1  0  0  0  0
 48 12  1  0  0  0  0
 50 13  1  0  0  0  0
 55 18  1  0  0  0  0
 57 19  1  0  0  0  0
 59 21  1  0  0  0  0
 60 21  1  0  0  0  0
 61 21  1  0  0  0  0
 63 22  1  0  0  0  0
 64 22  1  0  0  0  0
 66 23  1  0  0  0  0
 71 28  1  0  0  0  0
 73 29  1  0  0  0  0
 75 31  1  0  0  0  0
 76 31  1  0  0  0  0
 77 31  1  0  0  0  0
 79 32  1  0  0  0  0
 80 32  1  0  0  0  0
 81  1  1  0  0  0  0
M  CHG  1   1   2
M  END
$$$$
