
 OpenBabel02052520083D

 81 83  0  0  0  0  0  0  0  0999 V2000
    0.0002    0.0003    0.3056 Fe  0  2  0  0  0  0  0  0  0  0  0  0
   -0.0005    0.0000    2.5866 N   0  0  0  0  0  0  0  0  0  0  0  0
    1.3158   -0.5458    3.0016 C   0  0  0  0  0  0  0  0  0  0  0  0
    1.7399   -1.6654    2.0534 C   0  0  0  0  0  0  0  0  0  0  0  0
    1.6361   -1.1662    0.6752 N   0  0  0  0  0  0  0  0  0  0  0  0
    2.4869   -1.6223   -0.2612 C   0  0  0  0  0  0  0  0  0  0  0  0
    3.0421   -2.8638   -0.2112 N   0  0  0  0  0  0  0  0  0  0  0  0
    2.3318   -4.0331    0.3083 C   0  0  0  0  0  0  0  0  0  0  0  0
    4.4088   -3.1318   -0.6782 C   0  0  0  0  0  0  0  0  0  0  0  0
    2.8458   -0.8169   -1.2913 N   0  0  0  0  0  0  0  0  0  0  0  0
    3.0212   -1.3212   -2.6553 C   0  0  0  0  0  0  0  0  0  0  0  0
    2.8912    0.6352   -1.1646 C   0  0  0  0  0  0  0  0  0  0  0  0
   -0.1859    1.4128    3.0020 C   0  0  0  0  0  0  0  0  0  0  0  0
    0.5719    2.3400    2.0542 C   0  0  0  0  0  0  0  0  0  0  0  0
    0.1918    2.0001    0.6761 N   0  0  0  0  0  0  0  0  0  0  0  0
    0.1614    2.9642   -0.2611 C   0  0  0  0  0  0  0  0  0  0  0  0
    0.9593    4.0656   -0.2124 N   0  0  0  0  0  0  0  0  0  0  0  0
    2.3268    4.0354    0.3081 C   0  0  0  0  0  0  0  0  0  0  0  0
    0.5087    5.3826   -0.6814 C   0  0  0  0  0  0  0  0  0  0  0  0
   -0.7152    2.8710   -1.2913 N   0  0  0  0  0  0  0  0  0  0  0  0
   -0.3654    3.2722   -2.6560 C   0  0  0  0  0  0  0  0  0  0  0  0
   -1.9961    2.1855   -1.1637 C   0  0  0  0  0  0  0  0  0  0  0  0
   -1.1316   -0.8669    3.0011 C   0  0  0  0  0  0  0  0  0  0  0  0
   -2.3130   -0.6741    2.0526 C   0  0  0  0  0  0  0  0  0  0  0  0
   -1.8283   -0.8332    0.6745 N   0  0  0  0  0  0  0  0  0  0  0  0
   -2.6485   -1.3418   -0.2621 C   0  0  0  0  0  0  0  0  0  0  0  0
   -4.0013   -1.2030   -0.2117 N   0  0  0  0  0  0  0  0  0  0  0  0
   -4.6598   -0.0042    0.3088 C   0  0  0  0  0  0  0  0  0  0  0  0
   -4.9158   -2.2530   -0.6795 C   0  0  0  0  0  0  0  0  0  0  0  0
   -2.1301   -2.0539   -1.2930 N   0  0  0  0  0  0  0  0  0  0  0  0
   -2.6547   -1.9524   -2.6568 C   0  0  0  0  0  0  0  0  0  0  0  0
   -0.8950   -2.8189   -1.1670 C   0  0  0  0  0  0  0  0  0  0  0  0
    1.2835   -0.8982    4.0414 H   0  0  0  0  0  0  0  0  0  0  0  0
    2.0503    0.2607    2.9437 H   0  0  0  0  0  0  0  0  0  0  0  0
    2.7668   -1.9685    2.2867 H   0  0  0  0  0  0  0  0  0  0  0  0
    1.1048   -2.5456    2.2098 H   0  0  0  0  0  0  0  0  0  0  0  0
    1.2660   -3.8253    0.3835 H   0  0  0  0  0  0  0  0  0  0  0  0
    2.7144   -4.3381    1.2889 H   0  0  0  0  0  0  0  0  0  0  0  0
    2.4704   -4.8657   -0.3893 H   0  0  0  0  0  0  0  0  0  0  0  0
    4.9458   -2.1943   -0.8231 H   0  0  0  0  0  0  0  0  0  0  0  0
    4.4134   -3.7015   -1.6140 H   0  0  0  0  0  0  0  0  0  0  0  0
    4.9274   -3.7185    0.0870 H   0  0  0  0  0  0  0  0  0  0  0  0
    2.7432   -2.3738   -2.7074 H   0  0  0  0  0  0  0  0  0  0  0  0
    4.0543   -1.2023   -2.9988 H   0  0  0  0  0  0  0  0  0  0  0  0
    2.3576   -0.7550   -3.3181 H   0  0  0  0  0  0  0  0  0  0  0  0
    2.8482    0.9001   -0.1085 H   0  0  0  0  0  0  0  0  0  0  0  0
    2.0427    1.0913   -1.6822 H   0  0  0  0  0  0  0  0  0  0  0  0
    3.8283    1.0028   -1.5971 H   0  0  0  0  0  0  0  0  0  0  0  0
    0.1352    1.5608    4.0419 H   0  0  0  0  0  0  0  0  0  0  0  0
   -1.2515    1.6459    2.9441 H   0  0  0  0  0  0  0  0  0  0  0  0
    0.3209    3.3809    2.2872 H   0  0  0  0  0  0  0  0  0  0  0  0
    1.6516    2.2300    2.2110 H   0  0  0  0  0  0  0  0  0  0  0  0
    2.6791    3.0084    0.3856 H   0  0  0  0  0  0  0  0  0  0  0  0
    2.3992    4.5210    1.2879 H   0  0  0  0  0  0  0  0  0  0  0  0
    2.9793    4.5701   -0.3901 H   0  0  0  0  0  0  0  0  0  0  0  0
   -0.5716    5.3788   -0.8272 H   0  0  0  0  0  0  0  0  0  0  0  0
    1.0006    5.6701   -1.6171 H   0  0  0  0  0  0  0  0  0  0  0  0
    0.7569    6.1261    0.0831 H   0  0  0  0  0  0  0  0  0  0  0  0
    0.6852    3.5572   -2.7082 H   0  0  0  0  0  0  0  0  0  0  0  0
   -0.9845    4.1071   -3.0013 H   0  0  0  0  0  0  0  0  0  0  0  0
   -0.5242    2.4133   -3.3171 H   0  0  0  0  0  0  0  0  0  0  0  0
   -2.2047    2.0184   -0.1074 H   0  0  0  0  0  0  0  0  0  0  0  0
   -1.9672    1.2213   -1.6789 H   0  0  0  0  0  0  0  0  0  0  0  0
   -2.7822    2.8128   -1.5981 H   0  0  0  0  0  0  0  0  0  0  0  0
   -1.4210   -0.6629    4.0409 H   0  0  0  0  0  0  0  0  0  0  0  0
   -0.8006   -1.9063    2.9433 H   0  0  0  0  0  0  0  0  0  0  0  0
   -3.0891   -1.4119    2.2853 H   0  0  0  0  0  0  0  0  0  0  0  0
   -2.7578    0.3160    2.2093 H   0  0  0  0  0  0  0  0  0  0  0  0
   -3.9476    0.8155    0.3849 H   0  0  0  0  0  0  0  0  0  0  0  0
   -5.1152   -0.1843    1.2893 H   0  0  0  0  0  0  0  0  0  0  0  0
   -5.4504    0.2920   -0.3886 H   0  0  0  0  0  0  0  0  0  0  0  0
   -4.3716   -3.1863   -0.8247 H   0  0  0  0  0  0  0  0  0  0  0  0
   -5.4115   -1.9720   -1.6152 H   0  0  0  0  0  0  0  0  0  0  0  0
   -5.6833   -2.4099    0.0855 H   0  0  0  0  0  0  0  0  0  0  0  0
   -3.4274   -1.1854   -2.7080 H   0  0  0  0  0  0  0  0  0  0  0  0
   -3.0682   -2.9062   -3.0012 H   0  0  0  0  0  0  0  0  0  0  0  0
   -1.8326   -1.6602   -3.3195 H   0  0  0  0  0  0  0  0  0  0  0  0
   -0.6450   -2.9165   -0.1109 H   0  0  0  0  0  0  0  0  0  0  0  0
   -0.0754   -2.3103   -1.6825 H   0  0  0  0  0  0  0  0  0  0  0  0
   -1.0441   -3.8133   -1.6019 H   0  0  0  0  0  0  0  0  0  0  0  0
    0.0008    0.0029   -1.4953 F   0  0  0  0  0  0  0  0  0  0  0  0
  2 23  1  0  0  0  0
  2  3  1  0  0  0  0
  2 13  1  0  0  0  0
  2  1  9  0  0  0  0
  3 33  1  0  0  0  0
  4 36  1  0  0  0  0
  4 35  1  0  0  0  0
  4  3  1  0  0  0  0
  5  4  1  0  0  0  0
  5  1  9  0  0  0  0
  6  7  1  0  0  0  0
  6  5  2  0  0  0  0
  7  8  1  0  0  0  0
  8 37  1  0  0  0  0
  8 38  1  0  0  0  0
  9  7  1  0  0  0  0
  9 42  1  0  0  0  0
 10 12  1  0  0  0  0
 10  6  1  0  0  0  0
 11 10  1  0  0  0  0
 12 46  1  0  0  0  0
 13 49  1  0  0  0  0
 14 52  1  0  0  0  0
 14 51  1  0  0  0  0
 14 13  1  0  0  0  0
 15 14  1  0  0  0  0
 15  1  9  0  0  0  0
 16 17  1  0  0  0  0
 16 15  2  0  0  0  0
 17 18  1  0  0  0  0
 18 53  1  0  0  0  0
 18 54  1  0  0  0  0
 19 17  1  0  0  0  0
 19 58  1  0  0  0  0
 20 22  1  0  0  0  0
 20 16  1  0  0  0  0
 21 20  1  0  0  0  0
 22 62  1  0  0  0  0
 23 65  1  0  0  0  0
 24 68  1  0  0  0  0
 24 67  1  0  0  0  0
 24 23  1  0  0  0  0
 25 24  1  0  0  0  0
 25  1  9  0  0  0  0
 26 27  1  0  0  0  0
 26 25  2  0  0  0  0
 27 28  1  0  0  0  0
 28 69  1  0  0  0  0
 28 70  1  0  0  0  0
 29 27  1  0  0  0  0
 29 74  1  0  0  0  0
 30 32  1  0  0  0  0
 30 26  1  0  0  0  0
 31 30  1  0  0  0  0
 32 78  1  0  0  0  0
 34  3  1  0  0  0  0
 39  8  1  0  0  0  0
 40  9  1  0  0  0  0
 41  9  1  0  0  0  0
 43 11  1  0  0  0  0
 44 11  1  0  0  0  0
 45 11  1  0  0  0  0
 47 12  1  0  0  0  0
 48 12  1  0  0  0  0
 50 13  1  0  0  0  0
 55 18  1  0  0  0  0
 56 19  1  0  0  0  0
 57 19  1  0  0  0  0
 59 21  1  0  0  0  0
 60 21  1  0  0  0  0
 61 21  1  0  0  0  0
 63 22  1  0  0  0  0
 64 22  1  0  0  0  0
 66 23  1  0  0  0  0
 71 28  1  0  0  0  0
 72 29  1  0  0  0  0
 73 29  1  0  0  0  0
 75 31  1  0  0  0  0
 76 31  1  0  0  0  0
 77 31  1  0  0  0  0
 79 32  1  0  0  0  0
 80 32  1  0  0  0  0
 81  1  1  0  0  0  0
M  CHG  1   1   2
M  END
$$$$
