
 OpenBabel02052520083D

 64 71  0  0  0  0  0  0  0  0999 V2000
   -1.0210    0.5940    0.0142 Fe  0  1  0  0  0  0  0  0  0  0  0  0
   -1.7588   -0.7088    1.3493 N   0  0  0  0  0  0  0  0  0  0  0  0
   -1.8088   -0.6958   -1.3007 N   0  0  0  0  0  0  0  0  0  0  0  0
   -0.1825    1.8239   -1.2926 N   0  0  0  0  0  0  0  0  0  0  0  0
   -0.1394    1.8246    1.2929 N   0  0  0  0  0  0  0  0  0  0  0  0
    0.6413   -0.8321   -0.0198 N   0  0  1  0  0  0  0  0  0  0  0  0
   -3.0324   -0.6715    1.7845 C   0  0  0  0  0  0  0  0  0  0  0  0
   -3.5923    0.2113    1.4991 H   0  0  0  0  0  0  0  0  0  0  0  0
   -3.5794   -1.7107    2.5337 C   0  0  0  0  0  0  0  0  0  0  0  0
   -4.6066   -1.6425    2.8758 H   0  0  0  0  0  0  0  0  0  0  0  0
   -2.7937   -2.8290    2.8130 C   0  0  0  0  0  0  0  0  0  0  0  0
   -3.1978   -3.6623    3.3796 H   0  0  0  0  0  0  0  0  0  0  0  0
   -1.4735   -2.8647    2.3511 C   0  0  0  0  0  0  0  0  0  0  0  0
   -0.8356   -3.7186    2.5566 H   0  0  0  0  0  0  0  0  0  0  0  0
   -0.9872   -1.7808    1.6300 C   0  0  0  0  0  0  0  0  0  0  0  0
    0.4582   -1.6558    1.2174 C   0  0  0  0  0  0  0  0  0  0  0  0
    0.9262   -2.6415    1.1078 H   0  0  0  0  0  0  0  0  0  0  0  0
    0.9792   -1.1267    2.0255 H   0  0  0  0  0  0  0  0  0  0  0  0
   -3.0981   -0.6603   -1.6867 C   0  0  0  0  0  0  0  0  0  0  0  0
   -3.6535    0.2124   -1.3640 H   0  0  0  0  0  0  0  0  0  0  0  0
   -3.6639   -1.6885   -2.4369 C   0  0  0  0  0  0  0  0  0  0  0  0
   -4.7035   -1.6225   -2.7395 H   0  0  0  0  0  0  0  0  0  0  0  0
   -2.8792   -2.7929   -2.7703 C   0  0  0  0  0  0  0  0  0  0  0  0
   -3.2969   -3.6169   -3.3406 H   0  0  0  0  0  0  0  0  0  0  0  0
   -1.5426   -2.8265   -2.3586 C   0  0  0  0  0  0  0  0  0  0  0  0
   -0.9047   -3.6687   -2.6079 H   0  0  0  0  0  0  0  0  0  0  0  0
   -1.0387   -1.7540   -1.6323 C   0  0  0  0  0  0  0  0  0  0  0  0
    0.4197   -1.6230   -1.2744 C   0  0  0  0  0  0  0  0  0  0  0  0
    0.9038   -2.6042   -1.2118 H   0  0  0  0  0  0  0  0  0  0  0  0
    0.9074   -1.0666   -2.0829 H   0  0  0  0  0  0  0  0  0  0  0  0
   -0.3218    1.7404   -2.6280 C   0  0  0  0  0  0  0  0  0  0  0  0
   -0.8861    0.8921   -2.9951 H   0  0  0  0  0  0  0  0  0  0  0  0
    0.2040    2.6994   -3.4898 C   0  0  0  0  0  0  0  0  0  0  0  0
    0.0622    2.5998   -4.5606 H   0  0  0  0  0  0  0  0  0  0  0  0
    0.8899    3.7862   -2.9444 C   0  0  0  0  0  0  0  0  0  0  0  0
    1.3039    4.5579   -3.5861 H   0  0  0  0  0  0  0  0  0  0  0  0
    1.0238    3.8814   -1.5580 C   0  0  0  0  0  0  0  0  0  0  0  0
    1.5380    4.7294   -1.1206 H   0  0  0  0  0  0  0  0  0  0  0  0
    0.4707    2.8880   -0.7481 C   0  0  0  0  0  0  0  0  0  0  0  0
    0.4902    2.8912    0.7263 C   0  0  0  0  0  0  0  0  0  0  0  0
    1.0541    3.8943    1.5173 C   0  0  0  0  0  0  0  0  0  0  0  0
    1.5476    4.7454    1.0626 H   0  0  0  0  0  0  0  0  0  0  0  0
    0.9545    3.8060    2.9068 C   0  0  0  0  0  0  0  0  0  0  0  0
    1.3750    4.5862    3.5338 H   0  0  0  0  0  0  0  0  0  0  0  0
    0.2926    2.7156    3.4752 C   0  0  0  0  0  0  0  0  0  0  0  0
    0.1763    2.6223    4.5497 H   0  0  0  0  0  0  0  0  0  0  0  0
   -0.2448    1.7470    2.6318 C   0  0  0  0  0  0  0  0  0  0  0  0
   -0.7939    0.8961    3.0163 H   0  0  0  0  0  0  0  0  0  0  0  0
    1.9942   -0.1943   -0.0318 C   0  0  0  0  0  0  0  0  0  0  0  0
    2.0580    0.4470    0.8513 H   0  0  0  0  0  0  0  0  0  0  0  0
    2.0357    0.4615   -0.9030 H   0  0  0  0  0  0  0  0  0  0  0  0
    3.1916   -1.1338   -0.0856 C   0  0  2  0  0  3  0  0  0  0  0  0
    3.7955   -1.4960    1.0831 N   0  0  0  0  0  0  0  0  0  0  0  0
    3.4338   -1.1178    1.9557 H   0  0  0  0  0  0  0  0  0  0  0  0
    3.7457   -1.6221   -1.2623 C   0  0  0  0  0  0  0  0  0  0  0  0
    3.3150   -1.3317   -2.2139 H   0  0  0  0  0  0  0  0  0  0  0  0
    4.8691   -2.4603   -1.2262 C   0  0  0  0  0  0  0  0  0  0  0  0
    5.2986   -2.8295   -2.1531 H   0  0  0  0  0  0  0  0  0  0  0  0
    4.8852   -2.2976    1.1614 C   0  0  0  0  0  0  0  0  0  0  0  0
    5.2757   -2.4948    2.1540 H   0  0  0  0  0  0  0  0  0  0  0  0
    5.4442   -2.8066   -0.0003 C   0  0  0  0  0  0  0  0  0  0  0  0
    6.3188   -3.4457    0.0596 H   0  0  0  0  0  0  0  0  0  0  0  0
   -2.5324    1.5274    0.0462 O   0  0  0  0  0  0  0  0  0  0  0  0
   -2.4049    2.4931    0.0397 H   0  0  0  0  0  0  0  0  0  0  0  0
  1 63  1  0  0  0  0
  2 15  2  0  0  0  0
  2  7  1  0  0  0  0
  2  1  9  0  0  0  0
  3  1  9  0  0  0  0
  4 39  1  0  0  0  0
  4  1  9  0  0  0  0
  5 47  1  0  0  0  0
  5  1  9  0  0  0  0
  6 49  1  6  0  0  0
  6 16  1  0  0  0  0
  6  1  9  0  0  0  0
  7  9  2  0  0  0  0
  8  7  1  0  0  0  0
  9 11  1  0  0  0  0
  9 10  1  0  0  0  0
 11 12  1  0  0  0  0
 13 14  1  0  0  0  0
 13 11  2  0  0  0  0
 15 13  1  0  0  0  0
 16 15  1  0  0  0  0
 16 18  1  0  0  0  0
 17 16  1  0  0  0  0
 19 20  1  0  0  0  0
 19  3  2  0  0  0  0
 21 19  1  0  0  0  0
 22 21  1  0  0  0  0
 23 21  2  0  0  0  0
 23 25  1  0  0  0  0
 24 23  1  0  0  0  0
 25 27  2  0  0  0  0
 26 25  1  0  0  0  0
 27  3  1  0  0  0  0
 27 28  1  0  0  0  0
 28 29  1  0  0  0  0
 28  6  1  0  0  0  0
 30 28  1  0  0  0  0
 31  4  2  0  0  0  0
 32 31  1  0  0  0  0
 33 35  2  0  0  0  0
 33 31  1  0  0  0  0
 34 33  1  0  0  0  0
 35 37  1  0  0  0  0
 36 35  1  0  0  0  0
 37 38  1  0  0  0  0
 37 39  2  0  0  0  0
 39 40  1  0  0  0  0
 40  5  2  0  0  0  0
 40 41  1  0  0  0  0
 41 43  2  0  0  0  0
 42 41  1  0  0  0  0
 43 45  1  0  0  0  0
 43 44  1  0  0  0  0
 45 46  1  0  0  0  0
 47 48  1  0  0  0  0
 47 45  2  0  0  0  0
 49 50  1  0  0  0  0
 51 49  1  0  0  0  0
 52 49  1  6  0  0  0
 52 53  1  0  0  0  0
 53 59  1  0  0  0  0
 53 54  1  0  0  0  0
 55 57  2  0  0  0  0
 55 52  1  0  0  0  0
 56 55  1  0  0  0  0
 57 61  1  0  0  0  0
 58 57  1  0  0  0  0
 59 60  1  0  0  0  0
 61 62  1  0  0  0  0
 61 59  2  0  0  0  0
 64 63  1  0  0  0  0
M  RAD  1  52   2
M  CHG  1   1   3
M  END
$$$$
