
 OpenBabel02052520093D

 61 61  0  0  0  0  0  0  0  0999 V2000
    0.0863    0.6003    0.5576 Fe  0  2  2  0  0  0  0  0  0  0  0  0
    1.7113    0.2245   -0.5709 N   0  0  0  0  0  0  0  0  0  0  0  0
   -1.6828    0.5598   -0.2848 N   0  0  0  0  0  2  0  0  0  0  0  0
    0.1691    2.5160   -0.4429 N   0  0  0  0  0  0  0  0  0  0  0  0
   -1.1971    2.7706   -0.9985 C   0  0  0  0  0  0  0  0  0  0  0  0
    0.5583    3.6049    0.4953 C   0  0  0  0  0  0  0  0  0  0  0  0
    1.1944    2.3407   -1.5280 C   0  0  0  0  0  0  0  0  0  0  0  0
    2.3335    1.4759   -1.0135 C   0  0  0  0  0  0  0  0  0  0  0  0
    2.4774   -0.8757   -0.3550 C   0  0  0  0  0  0  0  0  0  0  0  0
    3.7593   -0.7809    0.0732 N   0  0  0  0  0  0  0  0  0  0  0  0
    1.9448   -2.0887   -0.5958 N   0  0  0  0  0  0  0  0  0  0  0  0
    0.7941   -2.2639   -1.4796 C   0  0  0  0  0  0  0  0  0  0  0  0
    2.3142   -3.2793    0.1808 C   0  0  0  0  0  0  0  0  0  0  0  0
    4.8191   -1.6978   -0.3696 C   0  0  0  0  0  0  0  0  0  0  0  0
   -2.6508   -0.3445    0.0156 C   0  0  0  0  0  3  0  0  0  0  0  0
   -3.4062   -0.9089   -0.9580 N   0  0  0  0  0  0  0  0  0  0  0  0
   -2.8935   -0.6494    1.3031 N   0  0  0  0  0  0  0  0  0  0  0  0
   -3.3424   -1.9840    1.7229 C   0  0  0  0  0  0  0  0  0  0  0  0
   -4.8350   -1.2068   -0.7744 C   0  0  0  0  0  0  0  0  0  0  0  0
   -2.8604   -1.2504   -2.2751 C   0  0  0  0  0  0  0  0  0  0  0  0
   -2.5959    0.2727    2.4029 C   0  0  0  0  0  0  0  0  0  0  0  0
   -1.7994    3.2048   -0.1978 H   0  0  0  0  0  0  0  0  0  0  0  0
   -1.1253    3.4956   -1.8181 H   0  0  0  0  0  0  0  0  0  0  0  0
   -1.2964    1.0556   -2.3243 H   0  0  0  0  0  0  0  0  0  0  0  0
   -1.8106    1.4535   -1.4423 C   0  0  0  0  0  0  0  0  0  0  0  0
   -2.8622    1.5962   -1.7119 H   0  0  0  0  0  0  0  0  0  0  0  0
    1.5381    3.3299   -1.8501 H   0  0  0  0  0  0  0  0  0  0  0  0
    0.7151    1.8437   -2.3730 H   0  0  0  0  0  0  0  0  0  0  0  0
    2.8638    1.9977   -0.2103 H   0  0  0  0  0  0  0  0  0  0  0  0
    3.0551    1.2894   -1.8171 H   0  0  0  0  0  0  0  0  0  0  0  0
    4.1628    0.2183    1.0700 C   0  0  0  0  0  0  0  0  0  0  0  0
    4.7211   -0.2899    1.8632 H   0  0  0  0  0  0  0  0  0  0  0  0
    4.8131    0.9824    0.6297 H   0  0  0  0  0  0  0  0  0  0  0  0
    3.2805    0.6852    1.5114 H   0  0  0  0  0  0  0  0  0  0  0  0
    5.6938   -1.1005   -0.6457 H   0  0  0  0  0  0  0  0  0  0  0  0
    5.1109   -2.3946    0.4232 H   0  0  0  0  0  0  0  0  0  0  0  0
    4.4876   -2.2578   -1.2444 H   0  0  0  0  0  0  0  0  0  0  0  0
    0.7257   -1.4199   -2.1657 H   0  0  0  0  0  0  0  0  0  0  0  0
   -0.1245   -2.3310   -0.8870 H   0  0  0  0  0  0  0  0  0  0  0  0
    0.9241   -3.1879   -2.0504 H   0  0  0  0  0  0  0  0  0  0  0  0
    2.9086   -2.9945    1.0483 H   0  0  0  0  0  0  0  0  0  0  0  0
    2.8721   -3.9975   -0.4279 H   0  0  0  0  0  0  0  0  0  0  0  0
    1.3941   -3.7545    0.5346 H   0  0  0  0  0  0  0  0  0  0  0  0
   -3.1663   -2.2712   -2.5259 H   0  0  0  0  0  0  0  0  0  0  0  0
   -1.7720   -1.2110   -2.2509 H   0  0  0  0  0  0  0  0  0  0  0  0
   -3.2394   -0.5767   -3.0515 H   0  0  0  0  0  0  0  0  0  0  0  0
   -1.6983   -0.0503    2.9385 H   0  0  0  0  0  0  0  0  0  0  0  0
   -3.4419    0.2767    3.0964 H   0  0  0  0  0  0  0  0  0  0  0  0
   -2.4433    1.2799    2.0159 H   0  0  0  0  0  0  0  0  0  0  0  0
   -5.3762   -0.8442   -1.6538 H   0  0  0  0  0  0  0  0  0  0  0  0
   -5.2146   -0.6917    0.1083 H   0  0  0  0  0  0  0  0  0  0  0  0
   -5.0123   -2.2828   -0.6754 H   0  0  0  0  0  0  0  0  0  0  0  0
   -4.3794   -1.9657    2.0721 H   0  0  0  0  0  0  0  0  0  0  0  0
   -3.2449   -2.6907    0.8992 H   0  0  0  0  0  0  0  0  0  0  0  0
   -2.6995   -2.3144    2.5442 H   0  0  0  0  0  0  0  0  0  0  0  0
   -0.1196    3.6075    1.3475 H   0  0  0  0  0  0  0  0  0  0  0  0
    0.5023    4.5625   -0.0357 H   0  0  0  0  0  0  0  0  0  0  0  0
    1.5694    3.4388    0.8604 H   0  0  0  0  0  0  0  0  0  0  0  0
    0.7401    1.3822    2.0380 O   0  0  0  0  0  0  0  0  0  0  0  0
    0.8721    0.7679    2.7839 H   0  0  0  0  0  0  0  0  0  0  0  0
   -0.0646   -0.9961    1.2070 F   0  0  0  0  0  0  0  0  0  0  0  0
  1 61  1  1  0  0  0
  1 59  1  0  0  0  0
  2  9  2  0  0  0  0
  2  1  9  0  0  0  0
  3 15  1  0  0  0  0
  4  6  1  0  0  0  0
  4  1  9  0  0  0  0
  5  4  1  0  0  0  0
  5 22  1  0  0  0  0
  6 58  1  0  0  0  0
  6 56  1  0  0  0  0
  7  8  1  0  0  0  0
  7  4  1  0  0  0  0
  8  2  1  0  0  0  0
  8 29  1  0  0  0  0
  9 10  1  0  0  0  0
 10 31  1  0  0  0  0
 11  9  1  0  0  0  0
 11 13  1  0  0  0  0
 12 39  1  0  0  0  0
 12 11  1  0  0  0  0
 13 43  1  0  0  0  0
 13 41  1  0  0  0  0
 14 10  1  0  0  0  0
 14 36  1  0  0  0  0
 15 17  1  0  0  0  0
 16 19  1  0  0  0  0
 16 15  1  0  0  0  0
 17 18  1  0  0  0  0
 17 21  1  0  0  0  0
 18 53  1  0  0  0  0
 18 55  1  0  0  0  0
 19 52  1  0  0  0  0
 19 51  1  0  0  0  0
 20 45  1  0  0  0  0
 20 16  1  0  0  0  0
 21 47  1  0  0  0  0
 21 48  1  0  0  0  0
 23  5  1  0  0  0  0
 24 25  1  0  0  0  0
 25  5  1  0  0  0  0
 25  3  1  0  0  0  0
 26 25  1  0  0  0  0
 27  7  1  0  0  0  0
 28  7  1  0  0  0  0
 30  8  1  0  0  0  0
 31 34  1  0  0  0  0
 31 32  1  0  0  0  0
 33 31  1  0  0  0  0
 35 14  1  0  0  0  0
 37 14  1  0  0  0  0
 38 12  1  0  0  0  0
 40 12  1  0  0  0  0
 42 13  1  0  0  0  0
 44 20  1  0  0  0  0
 46 20  1  0  0  0  0
 49 21  1  0  0  0  0
 50 19  1  0  0  0  0
 54 18  1  0  0  0  0
 57  6  1  0  0  0  0
 59 60  1  0  0  0  0
M  RAD  2   3   2  15   2
M  CHG  1   1   2
M  END
$$$$
