
 OpenBabel02072512503D

 65 71  0  0  0  0  0  0  0  0999 V2000
    1.0949   -0.4339   -0.2755 Fe  0  3  0  0  0 37  0  0  0  0  0  0
    0.1607   -1.4481   -1.9116 N   0  0  0  0  0  2  0  0  0  0  0  0
    0.8491   -2.0244    1.1382 N   0  0  0  0  0  0  0  0  0  0  0  0
    1.5451    1.0014    1.3155 N   0  0  0  0  0  0  0  0  0  0  0  0
    0.9006    1.5370   -1.2161 N   0  0  0  0  0  0  0  0  0  0  0  0
   -1.2691   -0.4919    0.3047 N   0  0  0  0  0  0  0  0  0  0  0  0
    0.8647   -1.7384   -3.0285 C   0  3  0  0  0  0  0  0  0  0  0  0
    1.9211   -1.4968   -2.9941 H   0  0  0  0  0  0  0  0  0  0  0  0
    0.2775   -2.3094   -4.1520 C   0  0  0  0  0  0  0  0  0  0  0  0
    0.8814   -2.5333   -5.0248 H   0  0  0  0  0  0  0  0  0  0  0  0
   -1.0913   -2.5843   -4.1223 C   0  0  0  0  0  0  0  0  0  0  0  0
   -1.5851   -3.0272   -4.9820 H   0  0  0  0  0  0  0  0  0  0  0  0
   -1.8167   -2.2935   -2.9634 C   0  0  0  0  0  0  0  0  0  0  0  0
   -2.8761   -2.5247   -2.9039 H   0  0  0  0  0  0  0  0  0  0  0  0
   -1.1584   -1.7383   -1.8690 C   0  0  0  0  0  0  0  0  0  0  0  0
   -1.8524   -1.5720   -0.5335 C   0  0  0  0  0  0  0  0  0  0  0  0
   -1.7335   -2.5147    0.0105 H   0  0  0  0  0  0  0  0  0  0  0  0
   -2.9336   -1.4435   -0.6691 H   0  0  0  0  0  0  0  0  0  0  0  0
    1.7630   -3.0090    1.2627 C   0  0  0  0  0  0  0  0  0  0  0  0
    2.6162   -2.9482    0.5966 H   0  0  0  0  0  0  0  0  0  0  0  0
    1.6220   -4.0379    2.1896 C   0  0  0  0  0  0  0  0  0  0  0  0
    2.3797   -4.8111    2.2597 H   0  0  0  0  0  0  0  0  0  0  0  0
    0.4935   -4.0482    3.0104 C   0  0  0  0  0  0  0  0  0  0  0  0
    0.3498   -4.8373    3.7424 H   0  0  0  0  0  0  0  0  0  0  0  0
   -0.4605   -3.0333    2.8715 C   0  0  0  0  0  0  0  0  0  0  0  0
   -1.3535   -3.0248    3.4886 H   0  0  0  0  0  0  0  0  0  0  0  0
   -0.2502   -2.0338    1.9283 C   0  0  0  0  0  0  0  0  0  0  0  0
   -1.2121   -0.8791    1.7364 C   0  0  0  0  0  0  0  0  0  0  0  0
   -2.2000   -1.1451    2.1337 H   0  0  0  0  0  0  0  0  0  0  0  0
   -0.8490   -0.0071    2.2926 H   0  0  0  0  0  0  0  0  0  0  0  0
    1.9280    0.6375    2.5538 C   0  0  0  0  0  0  0  0  0  0  0  0
    1.8211   -0.4132    2.7951 H   0  0  0  0  0  0  0  0  0  0  0  0
    2.4498    1.5380    3.4773 C   0  0  0  0  0  0  0  0  0  0  0  0
    2.7496    1.1954    4.4619 H   0  0  0  0  0  0  0  0  0  0  0  0
    2.5875    2.8727    3.0953 C   0  0  0  0  0  0  0  0  0  0  0  0
    2.9977    3.6073    3.7814 H   0  0  0  0  0  0  0  0  0  0  0  0
    2.2060    3.2528    1.8083 C   0  0  0  0  0  0  0  0  0  0  0  0
    2.3298    4.2833    1.4987 H   0  0  0  0  0  0  0  0  0  0  0  0
    1.6914    2.2955    0.9284 C   0  0  0  0  0  0  0  0  0  0  0  0
    1.3122    2.5968   -0.4738 C   0  0  0  0  0  0  0  0  0  0  0  0
    1.3874    3.8770   -1.0327 C   0  0  0  0  0  0  0  0  0  0  0  0
    1.7161    4.7230   -0.4416 H   0  0  0  0  0  0  0  0  0  0  0  0
    1.0490    4.0659   -2.3723 C   0  0  0  0  0  0  0  0  0  0  0  0
    1.1165    5.0538   -2.8175 H   0  0  0  0  0  0  0  0  0  0  0  0
    0.6348    2.9686   -3.1285 C   0  0  0  0  0  0  0  0  0  0  0  0
    0.3743    3.0682   -4.1768 H   0  0  0  0  0  0  0  0  0  0  0  0
    0.5756    1.7245   -2.5082 C   0  0  0  0  0  0  0  0  0  0  0  0
    0.2715    0.8402   -3.0554 H   0  0  0  0  0  0  0  0  0  0  0  0
   -1.8894    0.8326    0.0696 C   0  0  0  0  0  0  0  0  0  0  0  0
   -1.7887    1.0527   -0.9978 H   0  0  0  0  0  0  0  0  0  0  0  0
   -1.2870    1.5750    0.5995 H   0  0  0  0  0  0  0  0  0  0  0  0
   -3.3410    0.9974    0.5020 C   0  0  0  0  0  0  0  0  0  0  0  0
   -4.3192    0.9211   -0.4450 N   0  3  0  0  0  0  0  0  0  0  0  0
   -4.0442    0.7798   -1.4147 H   0  0  0  0  0  0  0  0  0  0  0  0
   -3.7419    1.2506    1.8084 C   0  0  0  0  0  0  0  0  0  0  0  0
   -2.9901    1.3487    2.5834 H   0  0  0  0  0  0  0  0  0  0  0  0
   -5.0995    1.4041    2.1181 C   0  0  0  0  0  0  0  0  0  0  0  0
   -5.4021    1.6091    3.1410 H   0  0  0  0  0  0  0  0  0  0  0  0
   -5.6423    1.0709   -0.1891 C   0  0  0  0  0  0  0  0  0  0  0  0
   -6.3146    1.0019   -1.0373 H   0  0  0  0  0  0  0  0  0  0  0  0
   -6.0631    1.3092    1.1089 C   0  0  0  0  0  0  0  0  0  0  0  0
   -7.1207    1.4315    1.3168 H   0  0  0  0  0  0  0  0  0  0  0  0
    2.8790   -0.7136   -0.7467 N   0  0  0  0  0  0  0  0  0  0  0  0
    4.0251   -0.2987   -0.7549 N   0  3  0  0  0  0  0  0  0  0  0  0
    5.1064    0.0796   -0.7695 N   0  5  0  0  0  0  0  0  0  0  0  0
  1 63  1  0  0  0  0
  2 15  1  0  0  0  0
  3 19  2  0  0  0  0
  3 27  1  0  0  0  0
  3  1  9  0  0  0  0
  4 31  1  0  0  0  0
  4  1  9  0  0  0  0
  5 40  1  0  0  0  0
  5  1  9  0  0  0  0
  6 28  1  0  0  0  0
  6  1  9  0  0  0  0
  7  8  1  0  0  0  0
  7  2  1  0  0  0  0
  9 11  2  0  0  0  0
  9  7  1  0  0  0  0
 10  9  1  0  0  0  0
 11 13  1  0  0  0  0
 12 11  1  0  0  0  0
 13 14  1  0  0  0  0
 13 15  2  0  0  0  0
 15 16  1  0  0  0  0
 16 17  1  0  0  0  0
 16  6  1  0  0  0  0
 18 16  1  0  0  0  0
 19 21  1  0  0  0  0
 20 19  1  0  0  0  0
 21 22  1  0  0  0  0
 21 23  2  0  0  0  0
 23 24  1  0  0  0  0
 25 23  1  0  0  0  0
 25 26  1  0  0  0  0
 27 25  2  0  0  0  0
 28 27  1  0  0  0  0
 28 29  1  0  0  0  0
 28 30  1  0  0  0  0
 31 32  1  0  0  0  0
 31 33  2  0  0  0  0
 33 34  1  0  0  0  0
 35 33  1  0  0  0  0
 35 36  1  0  0  0  0
 37 35  2  0  0  0  0
 38 37  1  0  0  0  0
 39  4  2  0  0  0  0
 39 37  1  0  0  0  0
 40 39  1  0  0  0  0
 41 40  2  0  0  0  0
 41 42  1  0  0  0  0
 43 41  1  0  0  0  0
 44 43  1  0  0  0  0
 45 47  1  0  0  0  0
 45 43  2  0  0  0  0
 46 45  1  0  0  0  0
 47  5  2  0  0  0  0
 48 47  1  0  0  0  0
 49  6  1  0  0  0  0
 49 52  1  0  0  0  0
 49 51  1  0  0  0  0
 50 49  1  0  0  0  0
 52 55  2  0  0  0  0
 53 59  2  0  0  0  0
 53 52  1  0  0  0  0
 54 53  1  0  0  0  0
 55 57  1  0  0  0  0
 55 56  1  0  0  0  0
 57 58  1  0  0  0  0
 59 61  1  0  0  0  0
 60 59  1  0  0  0  0
 61 62  1  0  0  0  0
 61 57  2  0  0  0  0
 64 63  2  0  0  0  0
 65 64  2  0  0  0  0
M  RAD  2   1   2   2   2
M  CHG  5   1   1   7   1  53   1  64   1  65  -1
M  END
$$$$
