
 OpenBabel02052520083D

 61 62  0  0  0  0  0  0  0  0999 V2000
    0.0465   -0.4423   -0.0107 Fe  0  2  0  0  0  0  0  0  0  0  0  0
    1.4736    0.3544    0.8230 N   0  0  0  0  0  0  0  0  0  0  0  0
   -1.7072   -0.4358    0.5186 N   0  0  0  0  0  0  0  0  0  0  0  0
    0.2634   -1.8861    1.5246 N   0  0  0  0  0  0  0  0  0  0  0  0
   -1.1145   -2.3869    1.7918 C   0  0  0  0  0  0  0  0  0  0  0  0
    1.1664   -3.0528    1.3008 C   0  0  0  0  0  0  0  0  0  0  0  0
    0.8032   -1.0483    2.6352 C   0  0  0  0  0  0  0  0  0  0  0  0
    1.9666   -0.2456    2.0758 C   0  0  0  0  0  0  0  0  0  0  0  0
    2.2953    1.2908    0.1935 C   0  0  0  0  0  0  0  0  0  0  0  0
    3.5484    0.9398   -0.1407 N   0  0  0  0  0  0  0  0  0  0  0  0
    1.8375    2.5241   -0.0211 N   0  0  0  0  0  0  0  0  0  0  0  0
    0.6992    3.0560    0.7319 C   0  0  0  0  0  0  0  0  0  0  0  0
    2.2231    3.3239   -1.1946 C   0  0  0  0  0  0  0  0  0  0  0  0
    4.6639    1.9009   -0.1933 C   0  0  0  0  0  0  0  0  0  0  0  0
   -2.6587    0.4391    0.0041 C   0  0  0  0  0  0  0  0  0  0  0  0
   -3.2183    1.3484    0.8257 N   0  0  0  0  0  0  0  0  0  0  0  0
   -3.0435    0.3233   -1.2664 N   0  0  0  0  0  0  0  0  0  0  0  0
   -3.4827    1.4736   -2.0710 C   0  0  0  0  0  0  0  0  0  0  0  0
   -4.6033    1.8277    0.6749 C   0  0  0  0  0  0  0  0  0  0  0  0
   -2.5028    1.8922    1.9835 C   0  0  0  0  0  0  0  0  0  0  0  0
   -2.8815   -0.9239   -2.0246 C   0  0  0  0  0  0  0  0  0  0  0  0
   -1.3364   -3.1145    1.0080 H   0  0  0  0  0  0  0  0  0  0  0  0
   -1.1698   -2.8919    2.7640 H   0  0  0  0  0  0  0  0  0  0  0  0
   -2.0854   -0.6193    2.6076 H   0  0  0  0  0  0  0  0  0  0  0  0
   -2.0963   -1.2324    1.6989 C   0  0  0  0  0  0  0  0  0  0  0  0
   -3.1161   -1.6154    1.5818 H   0  0  0  0  0  0  0  0  0  0  0  0
    1.1011   -1.6673    3.4892 H   0  0  0  0  0  0  0  0  0  0  0  0
    0.0203   -0.3603    2.9636 H   0  0  0  0  0  0  0  0  0  0  0  0
    2.8467   -0.8758    1.9104 H   0  0  0  0  0  0  0  0  0  0  0  0
    2.2608    0.5450    2.7765 H   0  0  0  0  0  0  0  0  0  0  0  0
    3.9176   -0.4468   -0.4590 C   0  0  0  0  0  0  0  0  0  0  0  0
    4.4838   -0.4471   -1.3953 H   0  0  0  0  0  0  0  0  0  0  0  0
    4.5527   -0.8666    0.3286 H   0  0  0  0  0  0  0  0  0  0  0  0
    3.0246   -1.0540   -0.5967 H   0  0  0  0  0  0  0  0  0  0  0  0
    5.5205    1.4448    0.3115 H   0  0  0  0  0  0  0  0  0  0  0  0
    4.9488    2.1301   -1.2245 H   0  0  0  0  0  0  0  0  0  0  0  0
    4.3960    2.8183    0.3303 H   0  0  0  0  0  0  0  0  0  0  0  0
    0.6434    2.5817    1.7111 H   0  0  0  0  0  0  0  0  0  0  0  0
   -0.2238    2.8761    0.1742 H   0  0  0  0  0  0  0  0  0  0  0  0
    0.8502    4.1299    0.8694 H   0  0  0  0  0  0  0  0  0  0  0  0
    2.7883    2.7150   -1.8987 H   0  0  0  0  0  0  0  0  0  0  0  0
    2.8073    4.2023   -0.9069 H   0  0  0  0  0  0  0  0  0  0  0  0
    1.3016    3.6511   -1.6848 H   0  0  0  0  0  0  0  0  0  0  0  0
   -2.5435    2.9856    1.9434 H   0  0  0  0  0  0  0  0  0  0  0  0
   -1.4616    1.5749    1.9560 H   0  0  0  0  0  0  0  0  0  0  0  0
   -2.9713    1.5637    2.9174 H   0  0  0  0  0  0  0  0  0  0  0  0
   -2.0667   -0.8243   -2.7467 H   0  0  0  0  0  0  0  0  0  0  0  0
   -3.8144   -1.1265   -2.5585 H   0  0  0  0  0  0  0  0  0  0  0  0
   -2.6551   -1.7504   -1.3547 H   0  0  0  0  0  0  0  0  0  0  0  0
   -5.0729    1.8141    1.6628 H   0  0  0  0  0  0  0  0  0  0  0  0
   -5.1610    1.1626    0.0163 H   0  0  0  0  0  0  0  0  0  0  0  0
   -4.6374    2.8497    0.2856 H   0  0  0  0  0  0  0  0  0  0  0  0
   -4.5528    1.4269   -2.2912 H   0  0  0  0  0  0  0  0  0  0  0  0
   -3.2456    2.4052   -1.5593 H   0  0  0  0  0  0  0  0  0  0  0  0
   -2.9294    1.4458   -3.0143 H   0  0  0  0  0  0  0  0  0  0  0  0
    0.7552   -3.6909    0.5220 H   0  0  0  0  0  0  0  0  0  0  0  0
    1.2669   -3.6243    2.2309 H   0  0  0  0  0  0  0  0  0  0  0  0
    2.1478   -2.7118    0.9741 H   0  0  0  0  0  0  0  0  0  0  0  0
   -0.1667    0.8870   -1.2009 O   0  0  0  0  0  0  0  0  0  0  0  0
   -0.0230    0.5562   -2.1065 H   0  0  0  0  0  0  0  0  0  0  0  0
    0.5435   -2.0175   -1.7384 Br  0  0  0  0  0  0  0  0  0  0  0  0
  2  8  1  0  0  0  0
  2  1  9  0  0  0  0
  3 25  1  0  0  0  0
  3  1  9  0  0  0  0
  4  5  1  0  0  0  0
  4  7  1  0  0  0  0
  4  1  9  0  0  0  0
  5 23  1  0  0  0  0
  6  4  1  0  0  0  0
  6 57  1  0  0  0  0
  7 28  1  0  0  0  0
  7 27  1  0  0  0  0
  8  7  1  0  0  0  0
  8 30  1  0  0  0  0
  9  2  2  0  0  0  0
 10  9  1  0  0  0  0
 11  9  1  0  0  0  0
 11 12  1  0  0  0  0
 12 40  1  0  0  0  0
 12 38  1  0  0  0  0
 13 42  1  0  0  0  0
 13 11  1  0  0  0  0
 14 10  1  0  0  0  0
 14 35  1  0  0  0  0
 14 37  1  0  0  0  0
 15  3  2  0  0  0  0
 15 16  1  0  0  0  0
 16 20  1  0  0  0  0
 17 15  1  0  0  0  0
 18 54  1  0  0  0  0
 18 17  1  0  0  0  0
 19 16  1  0  0  0  0
 19 50  1  0  0  0  0
 20 46  1  0  0  0  0
 21 49  1  0  0  0  0
 21 17  1  0  0  0  0
 22  5  1  0  0  0  0
 25  5  1  0  0  0  0
 25 24  1  0  0  0  0
 26 25  1  0  0  0  0
 29  8  1  0  0  0  0
 31 10  1  0  0  0  0
 31 33  1  0  0  0  0
 32 31  1  0  0  0  0
 34 31  1  0  0  0  0
 36 14  1  0  0  0  0
 39 12  1  0  0  0  0
 41 13  1  0  0  0  0
 43 13  1  0  0  0  0
 44 20  1  0  0  0  0
 45 20  1  0  0  0  0
 47 21  1  0  0  0  0
 48 21  1  0  0  0  0
 51 19  1  0  0  0  0
 52 19  1  0  0  0  0
 53 18  1  0  0  0  0
 55 18  1  0  0  0  0
 56  6  1  0  0  0  0
 58  6  1  0  0  0  0
 59  1  1  0  0  0  0
 60 59  1  0  0  0  0
 61  1  1  0  0  0  0
M  CHG  1   1   2
M  END
$$$$
