
 OpenBabel02052520093D

 45 49  0  0  0  0  0  0  0  0999 V2000
    0.0223    0.1155   -0.5718 Fe  0  2  0  0  0  0  0  0  0  0  0  0
   -0.4888    1.1573    1.2918 N   0  0  1  0  0  0  0  0  0  0  0  0
    0.4183   -1.5289    0.6786 N   0  0  1  0  0  0  0  0  0  0  0  0
   -1.9512   -0.0956   -0.6118 N   0  0  0  0  0  0  0  0  0  0  0  0
    2.0158    0.1814   -0.5737 N   0  0  0  0  0  0  0  0  0  0  0  0
   -0.5413    0.0867    2.3267 C   0  0  0  0  0  0  0  0  0  0  0  0
   -1.5257   -0.3861    2.2860 H   0  0  0  0  0  0  0  0  0  0  0  0
    0.5510   -0.9430    2.0617 C   0  0  0  0  0  0  0  0  0  0  0  0
    1.5337   -0.4711    2.1262 H   0  0  0  0  0  0  0  0  0  0  0  0
    0.4815    2.2256    1.6309 C   0  0  0  0  0  0  0  0  0  0  0  0
    0.1539    2.7938    2.5102 H   0  0  0  0  0  0  0  0  0  0  0  0
    0.5800    2.8972    0.7757 H   0  0  0  0  0  0  0  0  0  0  0  0
    1.4565    1.7808    1.8359 H   0  0  0  0  0  0  0  0  0  0  0  0
   -0.5979   -2.6187    0.6615 C   0  0  0  0  0  0  0  0  0  0  0  0
   -0.2629   -3.4583    1.2809 H   0  0  0  0  0  0  0  0  0  0  0  0
   -0.7399   -2.9657   -0.3636 H   0  0  0  0  0  0  0  0  0  0  0  0
   -1.5478   -2.2462    1.0426 H   0  0  0  0  0  0  0  0  0  0  0  0
   -1.8309    1.7165    1.0069 C   0  0  0  0  0  0  0  0  0  0  0  0
   -1.6899    2.6249    0.4106 H   0  0  0  0  0  0  0  0  0  0  0  0
   -2.3538    2.0028    1.9284 H   0  0  0  0  0  0  0  0  0  0  0  0
   -2.6501    0.7369    0.1986 C   0  0  0  0  0  0  0  0  0  0  0  0
   -4.0414    0.7024    0.2225 C   0  0  0  0  0  0  0  0  0  0  0  0
   -4.5849    1.3645    0.8889 H   0  0  0  0  0  0  0  0  0  0  0  0
   -4.7184   -0.1795   -0.6229 C   0  0  0  0  0  0  0  0  0  0  0  0
   -5.8037   -0.2128   -0.6208 H   0  0  0  0  0  0  0  0  0  0  0  0
   -3.9864   -1.0168   -1.4708 C   0  0  0  0  0  0  0  0  0  0  0  0
   -4.4766   -1.7102   -2.1454 H   0  0  0  0  0  0  0  0  0  0  0  0
   -2.6008   -0.9493   -1.4341 C   0  0  0  0  0  0  0  0  0  0  0  0
   -1.9807   -1.5761   -2.0669 H   0  0  0  0  0  0  0  0  0  0  0  0
    1.7408   -2.0705    0.2253 C   0  0  0  0  0  0  0  0  0  0  0  0
    1.5608   -2.6889   -0.6618 H   0  0  0  0  0  0  0  0  0  0  0  0
    2.1722   -2.7194    0.9965 H   0  0  0  0  0  0  0  0  0  0  0  0
    2.6547   -0.9306   -0.1360 C   0  0  0  0  0  0  0  0  0  0  0  0
    4.0412   -0.9911   -0.0840 C   0  0  0  0  0  0  0  0  0  0  0  0
    4.5336   -1.8879    0.2777 H   0  0  0  0  0  0  0  0  0  0  0  0
    4.7803    0.1158   -0.5130 C   0  0  0  0  0  0  0  0  0  0  0  0
    5.8653    0.0900   -0.4852 H   0  0  0  0  0  0  0  0  0  0  0  0
    4.1105    1.2497   -0.9789 C   0  0  0  0  0  0  0  0  0  0  0  0
    4.6518    2.1223   -1.3275 H   0  0  0  0  0  0  0  0  0  0  0  0
    2.7208    1.2494   -0.9975 C   0  0  0  0  0  0  0  0  0  0  0  0
    2.1355    2.0829   -1.3676 H   0  0  0  0  0  0  0  0  0  0  0  0
   -0.4239    0.5083    3.3325 H   0  0  0  0  0  0  0  0  0  0  0  0
    0.5167   -1.7493    2.8031 H   0  0  0  0  0  0  0  0  0  0  0  0
   -0.0248    1.3828   -1.7851 O   0  0  0  0  0  0  0  0  0  0  0  0
   -0.7920    1.4359   -2.3834 H   0  0  0  0  0  0  0  0  0  0  0  0
  2 10  1  1  0  0  0
  2  6  1  0  0  0  0
  2  1  9  0  0  0  0
  3 14  1  6  0  0  0
  3  8  1  0  0  0  0
  3  1  9  0  0  0  0
  4 21  1  0  0  0  0
  4  1  9  0  0  0  0
  5 33  1  0  0  0  0
  5  1  9  0  0  0  0
  6 42  1  0  0  0  0
  7  6  1  0  0  0  0
  8  9  1  0  0  0  0
  8  6  1  0  0  0  0
  8 43  1  0  0  0  0
 10 13  1  0  0  0  0
 10 11  1  0  0  0  0
 12 10  1  0  0  0  0
 14 17  1  0  0  0  0
 14 15  1  0  0  0  0
 16 14  1  0  0  0  0
 18  2  1  0  0  0  0
 18 20  1  0  0  0  0
 19 18  1  0  0  0  0
 21 22  2  0  0  0  0
 21 18  1  0  0  0  0
 22 23  1  0  0  0  0
 24 25  1  0  0  0  0
 24 22  1  0  0  0  0
 26 28  1  0  0  0  0
 26 24  2  0  0  0  0
 27 26  1  0  0  0  0
 28  4  2  0  0  0  0
 29 28  1  0  0  0  0
 30  3  1  0  0  0  0
 30 32  1  0  0  0  0
 31 30  1  0  0  0  0
 33 34  2  0  0  0  0
 33 30  1  0  0  0  0
 34 35  1  0  0  0  0
 36 37  1  0  0  0  0
 36 34  1  0  0  0  0
 38 36  2  0  0  0  0
 39 38  1  0  0  0  0
 40 38  1  0  0  0  0
 40  5  2  0  0  0  0
 41 40  1  0  0  0  0
 44  1  1  0  0  0  0
 45 44  1  0  0  0  0
M  CHG  1   1   2
M  END
$$$$
