
 OpenBabel02052520093D

 44 48  0  0  0  0  0  0  0  0999 V2000
    0.0196    0.1754   -0.1148 Fe  0  2  0  0  0  0  0  0  0  0  0  0
   -0.4014   -0.9942    1.6475 N   0  0  1  0  0  0  0  0  0  0  0  0
    0.4415   -1.6692   -1.0661 N   0  0  1  0  0  0  0  0  0  0  0  0
   -1.9396    0.0555   -0.2686 N   0  0  0  0  0  0  0  0  0  0  0  0
    1.9958    0.2061    0.0076 N   0  0  0  0  0  0  0  0  0  0  0  0
   -0.4673   -2.4003    1.1388 C   0  0  0  0  0  0  0  0  0  0  0  0
   -1.4611   -2.5648    0.7169 H   0  0  0  0  0  0  0  0  0  0  0  0
    0.6013   -2.6350    0.0741 C   0  0  0  0  0  0  0  0  0  0  0  0
    1.5954   -2.4902    0.5018 H   0  0  0  0  0  0  0  0  0  0  0  0
    0.5844   -0.8516    2.7486 C   0  0  0  0  0  0  0  0  0  0  0  0
    0.2555   -1.4031    3.6375 H   0  0  0  0  0  0  0  0  0  0  0  0
    0.6902    0.2055    3.0011 H   0  0  0  0  0  0  0  0  0  0  0  0
    1.5529   -1.2353    2.4268 H   0  0  0  0  0  0  0  0  0  0  0  0
   -0.5648   -2.1581   -2.0461 C   0  0  0  0  0  0  0  0  0  0  0  0
   -0.2073   -3.0724   -2.5339 H   0  0  0  0  0  0  0  0  0  0  0  0
   -0.7338   -1.3919   -2.8049 H   0  0  0  0  0  0  0  0  0  0  0  0
   -1.5061   -2.3658   -1.5385 H   0  0  0  0  0  0  0  0  0  0  0  0
   -1.7431   -0.5089    2.0754 C   0  0  0  0  0  0  0  0  0  0  0  0
   -1.6003    0.4426    2.6010 H   0  0  0  0  0  0  0  0  0  0  0  0
   -2.2117   -1.2092    2.7779 H   0  0  0  0  0  0  0  0  0  0  0  0
   -2.6072   -0.2712    0.8647 C   0  0  0  0  0  0  0  0  0  0  0  0
   -3.9967   -0.3272    0.8835 C   0  0  0  0  0  0  0  0  0  0  0  0
   -4.5126   -0.6028    1.7975 H   0  0  0  0  0  0  0  0  0  0  0  0
   -4.7060   -0.0148   -0.2783 C   0  0  0  0  0  0  0  0  0  0  0  0
   -5.7913   -0.0445   -0.2798 H   0  0  0  0  0  0  0  0  0  0  0  0
   -4.0056    0.3402   -1.4353 C   0  0  0  0  0  0  0  0  0  0  0  0
   -4.5212    0.6013   -2.3529 H   0  0  0  0  0  0  0  0  0  0  0  0
   -2.6195    0.3672   -1.3936 C   0  0  0  0  0  0  0  0  0  0  0  0
   -2.0251    0.6633   -2.2502 H   0  0  0  0  0  0  0  0  0  0  0  0
    1.7478   -1.4308   -1.7516 C   0  0  0  0  0  0  0  0  0  0  0  0
    1.5431   -0.8733   -2.6732 H   0  0  0  0  0  0  0  0  0  0  0  0
    2.2140   -2.3813   -2.0384 H   0  0  0  0  0  0  0  0  0  0  0  0
    2.6428   -0.6162   -0.8574 C   0  0  0  0  0  0  0  0  0  0  0  0
    4.0308   -0.6668   -0.9048 C   0  0  0  0  0  0  0  0  0  0  0  0
    4.5234   -1.3383   -1.6004 H   0  0  0  0  0  0  0  0  0  0  0  0
    4.7694    0.1558   -0.0510 C   0  0  0  0  0  0  0  0  0  0  0  0
    5.8546    0.1364   -0.0769 H   0  0  0  0  0  0  0  0  0  0  0  0
    4.0956    0.9988    0.8368 C   0  0  0  0  0  0  0  0  0  0  0  0
    4.6324    1.6541    1.5140 H   0  0  0  0  0  0  0  0  0  0  0  0
    2.7080    1.0011    0.8379 C   0  0  0  0  0  0  0  0  0  0  0  0
    2.1373    1.6546    1.4853 H   0  0  0  0  0  0  0  0  0  0  0  0
   -0.3378   -3.1095    1.9644 H   0  0  0  0  0  0  0  0  0  0  0  0
    0.5462   -3.6628   -0.3021 H   0  0  0  0  0  0  0  0  0  0  0  0
   -0.1326    2.5356   -0.2194 Br  0  0  0  0  0  0  0  0  0  0  0  0
  2 18  1  0  0  0  0
  2 10  1  1  0  0  0
  2  1  9  0  0  0  0
  3 14  1  6  0  0  0
  3  8  1  0  0  0  0
  3  1  9  0  0  0  0
  4 21  1  0  0  0  0
  4  1  9  0  0  0  0
  5 40  1  0  0  0  0
  5  1  9  0  0  0  0
  6  2  1  0  0  0  0
  6 42  1  0  0  0  0
  7  6  1  0  0  0  0
  8  9  1  0  0  0  0
  8  6  1  0  0  0  0
 10 12  1  0  0  0  0
 10 11  1  0  0  0  0
 13 10  1  0  0  0  0
 14 17  1  0  0  0  0
 15 14  1  0  0  0  0
 16 14  1  0  0  0  0
 18 19  1  0  0  0  0
 18 20  1  0  0  0  0
 21 22  2  0  0  0  0
 21 18  1  0  0  0  0
 22 23  1  0  0  0  0
 24 22  1  0  0  0  0
 25 24  1  0  0  0  0
 26 28  1  0  0  0  0
 26 24  2  0  0  0  0
 27 26  1  0  0  0  0
 28  4  2  0  0  0  0
 29 28  1  0  0  0  0
 30  3  1  0  0  0  0
 30 33  1  0  0  0  0
 31 30  1  0  0  0  0
 32 30  1  0  0  0  0
 33  5  2  0  0  0  0
 34 33  1  0  0  0  0
 34 36  2  0  0  0  0
 35 34  1  0  0  0  0
 36 38  1  0  0  0  0
 37 36  1  0  0  0  0
 38 40  2  0  0  0  0
 38 39  1  0  0  0  0
 40 41  1  0  0  0  0
 43  8  1  0  0  0  0
 44  1  1  0  0  0  0
M  CHG  1   1   2
M  END
$$$$
