
 OpenBabel02052520093D

 63 71  0  0  0  0  0  0  0  0999 V2000
    0.0001    0.5749    0.0001 Fe  0  2  0  0  0  0  0  0  0  0  0  0
   -0.0004   -1.6287   -0.0004 N   0  0  0  0  0  0  0  0  0  0  0  0
    1.6423    0.3624    1.4068 N   0  0  0  0  0  0  0  0  0  0  0  0
    1.6422    0.3628   -1.4068 N   0  0  0  0  0  0  0  0  0  0  0  0
   -1.6423    0.3637   -1.4067 N   0  0  0  0  0  0  0  0  0  0  0  0
   -1.6421    0.3627    1.4070 N   0  0  0  0  0  0  0  0  0  0  0  0
    3.7036   -2.4718   -0.0006 C   0  0  0  0  0  0  0  0  0  0  0  0
    4.6452   -1.9196   -0.0004 H   0  0  0  0  0  0  0  0  0  0  0  0
    3.6937   -3.1142   -0.8829 H   0  0  0  0  0  0  0  0  0  0  0  0
    3.6937   -3.1149    0.8811 H   0  0  0  0  0  0  0  0  0  0  0  0
    2.5027   -1.5019   -0.0003 C   0  0  2  0  0  0  0  0  0  0  0  0
    1.1751   -2.3038   -0.0007 C   0  0  0  0  0  0  0  0  0  0  0  0
    1.1959   -3.7003   -0.0013 C   0  0  0  0  0  0  0  0  0  0  0  0
    2.1238   -4.2507   -0.0015 H   0  0  0  0  0  0  0  0  0  0  0  0
   -0.0009   -4.4027   -0.0016 C   0  0  0  0  0  0  0  0  0  0  0  0
   -0.0011   -5.4883   -0.0020 H   0  0  0  0  0  0  0  0  0  0  0  0
   -1.1974   -3.6999   -0.0013 C   0  0  0  0  0  0  0  0  0  0  0  0
   -2.1256   -4.2499   -0.0015 H   0  0  0  0  0  0  0  0  0  0  0  0
   -1.1761   -2.3033   -0.0007 C   0  0  0  0  0  0  0  0  0  0  0  0
   -2.5034   -1.5009   -0.0004 C   0  0  2  0  0  0  0  0  0  0  0  0
   -3.7047   -2.4704   -0.0004 C   0  0  0  0  0  0  0  0  0  0  0  0
   -4.6461   -1.9178   -0.0002 H   0  0  0  0  0  0  0  0  0  0  0  0
   -3.6949   -3.1133    0.8814 H   0  0  0  0  0  0  0  0  0  0  0  0
   -3.6951   -3.1129   -0.8826 H   0  0  0  0  0  0  0  0  0  0  0  0
   -2.5777   -0.6006   -1.2644 C   0  0  0  0  0  0  0  0  0  0  0  0
   -3.5939   -0.7305   -2.2162 C   0  0  0  0  0  0  0  0  0  0  0  0
   -4.3464   -1.5005   -2.1300 H   0  0  0  0  0  0  0  0  0  0  0  0
   -3.6601    0.1506   -3.2964 C   0  0  0  0  0  0  0  0  0  0  0  0
   -4.4507    0.0461   -4.0329 H   0  0  0  0  0  0  0  0  0  0  0  0
   -2.7195    1.1709   -3.3984 C   0  0  0  0  0  0  0  0  0  0  0  0
   -2.7481    1.9005   -4.2001 H   0  0  0  0  0  0  0  0  0  0  0  0
   -1.7319    1.2386   -2.4257 C   0  0  0  0  0  0  0  0  0  0  0  0
   -0.9954    2.0303   -2.4354 H   0  0  0  0  0  0  0  0  0  0  0  0
   -2.5775   -0.6014    1.2642 C   0  0  0  0  0  0  0  0  0  0  0  0
   -3.5937   -0.7320    2.2160 C   0  0  0  0  0  0  0  0  0  0  0  0
   -4.3461   -1.5019    2.1293 H   0  0  0  0  0  0  0  0  0  0  0  0
   -3.6597    0.1483    3.2968 C   0  0  0  0  0  0  0  0  0  0  0  0
   -4.4503    0.0434    4.0333 H   0  0  0  0  0  0  0  0  0  0  0  0
   -2.7190    1.1685    3.3995 C   0  0  0  0  0  0  0  0  0  0  0  0
   -2.7474    1.8975    4.2018 H   0  0  0  0  0  0  0  0  0  0  0  0
   -1.7315    1.2369    2.4268 C   0  0  0  0  0  0  0  0  0  0  0  0
   -0.9949    2.0284    2.4371 H   0  0  0  0  0  0  0  0  0  0  0  0
    2.5773   -0.6017   -1.2644 C   0  0  0  0  0  0  0  0  0  0  0  0
    3.5937   -0.7320   -2.2159 C   0  0  0  0  0  0  0  0  0  0  0  0
    4.3459   -1.5021   -2.1295 H   0  0  0  0  0  0  0  0  0  0  0  0
    3.6601    0.1489   -3.2963 C   0  0  0  0  0  0  0  0  0  0  0  0
    4.4509    0.0441   -4.0327 H   0  0  0  0  0  0  0  0  0  0  0  0
    2.7197    1.1693   -3.3987 C   0  0  0  0  0  0  0  0  0  0  0  0
    2.7485    1.8987   -4.2006 H   0  0  0  0  0  0  0  0  0  0  0  0
    1.7320    1.2374   -2.4261 C   0  0  0  0  0  0  0  0  0  0  0  0
    0.9956    2.0291   -2.4362 H   0  0  0  0  0  0  0  0  0  0  0  0
    2.5771   -0.6024    1.2643 C   0  0  0  0  0  0  0  0  0  0  0  0
    3.5931   -0.7333    2.2162 C   0  0  0  0  0  0  0  0  0  0  0  0
    4.3451   -1.5037    2.1299 H   0  0  0  0  0  0  0  0  0  0  0  0
    3.6595    0.1471    3.2969 C   0  0  0  0  0  0  0  0  0  0  0  0
    4.4499    0.0418    4.0336 H   0  0  0  0  0  0  0  0  0  0  0  0
    2.7195    1.1680    3.3992 C   0  0  0  0  0  0  0  0  0  0  0  0
    2.7484    1.8972    4.2012 H   0  0  0  0  0  0  0  0  0  0  0  0
    1.7322    1.2368    2.4263 C   0  0  0  0  0  0  0  0  0  0  0  0
    0.9962    2.0289    2.4362 H   0  0  0  0  0  0  0  0  0  0  0  0
    0.0004    2.4697    0.0006 N   0  0  0  0  0  0  0  0  0  0  0  0
    0.0007    3.6768    0.0008 C   0  0  0  0  0  0  0  0  0  0  0  0
    0.0019    5.2596    0.0008 S   0  0  0  0  0  0  0  0  0  0  0  0
  1 61  1  0  0  0  0
  2  1  9  0  0  0  0
  3 59  1  0  0  0  0
  3  1  9  0  0  0  0
  4 43  1  0  0  0  0
  4  1  9  0  0  0  0
  5 25  1  0  0  0  0
  5  1  9  0  0  0  0
  6 41  1  0  0  0  0
  6  1  9  0  0  0  0
  7  8  1  0  0  0  0
  7 10  1  0  0  0  0
  9  7  1  0  0  0  0
 11  7  1  6  0  0  0
 11 52  1  0  0  0  0
 12  2  1  0  0  0  0
 12 11  1  0  0  0  0
 13 12  2  0  0  0  0
 14 13  1  0  0  0  0
 15 17  2  0  0  0  0
 15 13  1  0  0  0  0
 16 15  1  0  0  0  0
 17 19  1  0  0  0  0
 18 17  1  0  0  0  0
 19  2  2  0  0  0  0
 19 20  1  0  0  0  0
 20 21  1  6  0  0  0
 20 34  1  0  0  0  0
 21 22  1  0  0  0  0
 21 23  1  0  0  0  0
 24 21  1  0  0  0  0
 25 20  1  0  0  0  0
 26 27  1  0  0  0  0
 26 25  2  0  0  0  0
 28 26  1  0  0  0  0
 29 28  1  0  0  0  0
 30 28  2  0  0  0  0
 30 32  1  0  0  0  0
 31 30  1  0  0  0  0
 32  5  2  0  0  0  0
 33 32  1  0  0  0  0
 34  6  2  0  0  0  0
 34 35  1  0  0  0  0
 35 37  2  0  0  0  0
 36 35  1  0  0  0  0
 37 39  1  0  0  0  0
 37 38  1  0  0  0  0
 39 40  1  0  0  0  0
 41 42  1  0  0  0  0
 41 39  2  0  0  0  0
 43 11  1  0  0  0  0
 44 45  1  0  0  0  0
 44 43  2  0  0  0  0
 46 44  1  0  0  0  0
 47 46  1  0  0  0  0
 48 46  2  0  0  0  0
 48 50  1  0  0  0  0
 49 48  1  0  0  0  0
 50  4  2  0  0  0  0
 51 50  1  0  0  0  0
 52  3  2  0  0  0  0
 52 53  1  0  0  0  0
 53 55  2  0  0  0  0
 54 53  1  0  0  0  0
 55 57  1  0  0  0  0
 55 56  1  0  0  0  0
 57 58  1  0  0  0  0
 59 60  1  0  0  0  0
 59 57  2  0  0  0  0
 61 62  2  0  0  0  0
 63 62  2  0  0  0  0
M  CHG  1   1   2
M  END
$$$$
