
 OpenBabel02052520093D

 61 69  0  0  0  0  0  0  0  0999 V2000
   -0.0000    0.0000   -0.7188 Fe  0  2  0  0  0  0  0  0  0  0  0  0
    0.0001   -0.0002    1.3144 N   0  0  0  0  0  0  0  0  0  0  0  0
   -1.5312   -1.3074   -0.7151 N   0  0  0  0  0  0  0  0  0  0  0  0
   -1.5311    1.3076   -0.7149 N   0  0  0  0  0  0  0  0  0  0  0  0
    1.5311    1.3075   -0.7149 N   0  0  0  0  0  0  0  0  0  0  0  0
    1.5311   -1.3075   -0.7151 N   0  0  0  0  0  0  0  0  0  0  0  0
   -3.7021   -0.0002    2.0821 C   0  0  0  0  0  0  0  0  0  0  0  0
   -4.6204   -0.0001    1.4917 H   0  0  0  0  0  0  0  0  0  0  0  0
   -3.7162    0.8821    2.7252 H   0  0  0  0  0  0  0  0  0  0  0  0
   -3.7163   -0.8828    2.7248 H   0  0  0  0  0  0  0  0  0  0  0  0
   -2.4652   -0.0000    1.1647 C   0  0  2  0  0  0  0  0  0  0  0  0
   -1.1736   -0.0003    1.9903 C   0  0  0  0  0  0  0  0  0  0  0  0
   -1.1972   -0.0008    3.3844 C   0  0  0  0  0  0  0  0  0  0  0  0
   -2.1310   -0.0009    3.9265 H   0  0  0  0  0  0  0  0  0  0  0  0
    0.0002   -0.0010    4.0884 C   0  0  0  0  0  0  0  0  0  0  0  0
    0.0002   -0.0013    5.1740 H   0  0  0  0  0  0  0  0  0  0  0  0
    1.1975   -0.0007    3.3843 C   0  0  0  0  0  0  0  0  0  0  0  0
    2.1313   -0.0009    3.9264 H   0  0  0  0  0  0  0  0  0  0  0  0
    1.1738   -0.0004    1.9902 C   0  0  0  0  0  0  0  0  0  0  0  0
    2.4653   -0.0001    1.1645 C   0  0  2  0  0  0  0  0  0  0  0  0
    3.7022    0.0001    2.0819 C   0  0  0  0  0  0  0  0  0  0  0  0
    4.6205    0.0009    1.4915 H   0  0  0  0  0  0  0  0  0  0  0  0
    3.7170   -0.8827    2.7242 H   0  0  0  0  0  0  0  0  0  0  0  0
    3.7159    0.8821    2.7252 H   0  0  0  0  0  0  0  0  0  0  0  0
    2.4868    1.2398    0.2391 C   0  0  0  0  0  0  0  0  0  0  0  0
    3.4912    2.2070    0.2977 C   0  0  0  0  0  0  0  0  0  0  0  0
    4.2443    2.1783    1.0722 H   0  0  0  0  0  0  0  0  0  0  0  0
    3.5481    3.2133   -0.6675 C   0  0  0  0  0  0  0  0  0  0  0  0
    4.3274    3.9676   -0.6223 H   0  0  0  0  0  0  0  0  0  0  0  0
    2.6221    3.2014   -1.7053 C   0  0  0  0  0  0  0  0  0  0  0  0
    2.6597    3.9210   -2.5156 H   0  0  0  0  0  0  0  0  0  0  0  0
    1.6346    2.2252   -1.6936 C   0  0  0  0  0  0  0  0  0  0  0  0
    0.9281    2.1337   -2.5024 H   0  0  0  0  0  0  0  0  0  0  0  0
    2.4869   -1.2399    0.2387 C   0  0  0  0  0  0  0  0  0  0  0  0
    3.4915   -2.2069    0.2970 C   0  0  0  0  0  0  0  0  0  0  0  0
    4.2448   -2.1782    1.0713 H   0  0  0  0  0  0  0  0  0  0  0  0
    3.5483   -3.2131   -0.6683 C   0  0  0  0  0  0  0  0  0  0  0  0
    4.3277   -3.9673   -0.6234 H   0  0  0  0  0  0  0  0  0  0  0  0
    2.6220   -3.2012   -1.7059 C   0  0  0  0  0  0  0  0  0  0  0  0
    2.6594   -3.9208   -2.5162 H   0  0  0  0  0  0  0  0  0  0  0  0
    1.6344   -2.2252   -1.6939 C   0  0  0  0  0  0  0  0  0  0  0  0
    0.9276   -2.1337   -2.5024 H   0  0  0  0  0  0  0  0  0  0  0  0
   -2.4867    1.2400    0.2393 C   0  0  0  0  0  0  0  0  0  0  0  0
   -3.4910    2.2073    0.2979 C   0  0  0  0  0  0  0  0  0  0  0  0
   -4.2440    2.1787    1.0725 H   0  0  0  0  0  0  0  0  0  0  0  0
   -3.5479    3.2136   -0.6672 C   0  0  0  0  0  0  0  0  0  0  0  0
   -4.3271    3.9679   -0.6220 H   0  0  0  0  0  0  0  0  0  0  0  0
   -2.6220    3.2016   -1.7052 C   0  0  0  0  0  0  0  0  0  0  0  0
   -2.6595    3.9211   -2.5155 H   0  0  0  0  0  0  0  0  0  0  0  0
   -1.6345    2.2253   -1.6935 C   0  0  0  0  0  0  0  0  0  0  0  0
   -0.9281    2.1337   -2.5023 H   0  0  0  0  0  0  0  0  0  0  0  0
   -2.4869   -1.2397    0.2389 C   0  0  0  0  0  0  0  0  0  0  0  0
   -3.4916   -2.2067    0.2972 C   0  0  0  0  0  0  0  0  0  0  0  0
   -4.2448   -2.1779    1.0716 H   0  0  0  0  0  0  0  0  0  0  0  0
   -3.5486   -3.2127   -0.6682 C   0  0  0  0  0  0  0  0  0  0  0  0
   -4.3282   -3.9668   -0.6232 H   0  0  0  0  0  0  0  0  0  0  0  0
   -2.6226   -3.2008   -1.7060 C   0  0  0  0  0  0  0  0  0  0  0  0
   -2.6602   -3.9202   -2.5164 H   0  0  0  0  0  0  0  0  0  0  0  0
   -1.6348   -2.2249   -1.6940 C   0  0  0  0  0  0  0  0  0  0  0  0
   -0.9282   -2.1333   -2.5027 H   0  0  0  0  0  0  0  0  0  0  0  0
   -0.0000    0.0001   -2.4861 F   0  0  0  0  0  0  0  0  0  0  0  0
  2 19  2  0  0  0  0
  2 12  1  0  0  0  0
  2  1  9  0  0  0  0
  3 52  1  0  0  0  0
  3  1  9  0  0  0  0
  4 43  1  0  0  0  0
  4  1  9  0  0  0  0
  5 25  1  0  0  0  0
  5  1  9  0  0  0  0
  6 34  1  0  0  0  0
  6  1  9  0  0  0  0
  7 10  1  0  0  0  0
  7  9  1  0  0  0  0
  8  7  1  0  0  0  0
 11 12  1  0  0  0  0
 11  7  1  1  0  0  0
 12 13  2  0  0  0  0
 13 14  1  0  0  0  0
 13 15  1  0  0  0  0
 15 16  1  0  0  0  0
 17 18  1  0  0  0  0
 17 15  2  0  0  0  0
 19 17  1  0  0  0  0
 20 19  1  0  0  0  0
 20 21  1  1  0  0  0
 21 23  1  0  0  0  0
 21 24  1  0  0  0  0
 22 21  1  0  0  0  0
 25 26  2  0  0  0  0
 25 20  1  0  0  0  0
 26 27  1  0  0  0  0
 28 29  1  0  0  0  0
 28 26  1  0  0  0  0
 30 32  1  0  0  0  0
 30 28  2  0  0  0  0
 31 30  1  0  0  0  0
 32  5  2  0  0  0  0
 33 32  1  0  0  0  0
 34 35  2  0  0  0  0
 34 20  1  0  0  0  0
 35 36  1  0  0  0  0
 37 38  1  0  0  0  0
 37 35  1  0  0  0  0
 39 41  1  0  0  0  0
 39 37  2  0  0  0  0
 40 39  1  0  0  0  0
 41  6  2  0  0  0  0
 42 41  1  0  0  0  0
 43 44  2  0  0  0  0
 43 11  1  0  0  0  0
 44 45  1  0  0  0  0
 46 47  1  0  0  0  0
 46 44  1  0  0  0  0
 48 50  1  0  0  0  0
 48 46  2  0  0  0  0
 49 48  1  0  0  0  0
 50  4  2  0  0  0  0
 51 50  1  0  0  0  0
 52 53  2  0  0  0  0
 52 11  1  0  0  0  0
 53 54  1  0  0  0  0
 55 56  1  0  0  0  0
 55 53  1  0  0  0  0
 57 59  1  0  0  0  0
 57 55  2  0  0  0  0
 58 57  1  0  0  0  0
 59  3  2  0  0  0  0
 60 59  1  0  0  0  0
 61  1  1  0  0  0  0
M  CHG  1   1   2
M  END
$$$$
