
 OpenBabel02052520093D

 61 69  0  0  0  0  0  0  0  0999 V2000
    0.0000    0.0001   -0.4909 Fe  0  2  0  0  0  0  0  0  0  0  0  0
   -0.0001   -0.0002    1.5493 N   0  0  0  0  0  0  0  0  0  0  0  0
   -1.5359   -1.3616   -0.4382 N   0  0  0  0  0  0  0  0  0  0  0  0
   -1.5364    1.3612   -0.4382 N   0  0  0  0  0  0  0  0  0  0  0  0
    1.5360    1.3616   -0.4380 N   0  0  0  0  0  0  0  0  0  0  0  0
    1.5366   -1.3610   -0.4386 N   0  0  0  0  0  0  0  0  0  0  0  0
   -3.6955   -0.0006    2.3529 C   0  0  0  0  0  0  0  0  0  0  0  0
   -4.6242   -0.0010    1.7796 H   0  0  0  0  0  0  0  0  0  0  0  0
   -3.6987    0.8812    2.9960 H   0  0  0  0  0  0  0  0  0  0  0  0
   -3.6982   -0.8823    2.9963 H   0  0  0  0  0  0  0  0  0  0  0  0
   -2.4730   -0.0004    1.4129 C   0  0  2  0  0  0  0  0  0  0  0  0
   -1.1731   -0.0001    2.2269 C   0  0  0  0  0  0  0  0  0  0  0  0
   -1.1953    0.0001    3.6214 C   0  0  0  0  0  0  0  0  0  0  0  0
   -2.1282    0.0003    4.1638 H   0  0  0  0  0  0  0  0  0  0  0  0
   -0.0002   -0.0003    4.3268 C   0  0  0  0  0  0  0  0  0  0  0  0
   -0.0002   -0.0003    5.4124 H   0  0  0  0  0  0  0  0  0  0  0  0
    1.1950   -0.0006    3.6215 C   0  0  0  0  0  0  0  0  0  0  0  0
    2.1279   -0.0009    4.1640 H   0  0  0  0  0  0  0  0  0  0  0  0
    1.1729   -0.0003    2.2270 C   0  0  0  0  0  0  0  0  0  0  0  0
    2.4728    0.0000    1.4131 C   0  0  2  0  0  0  0  0  0  0  0  0
    3.6952    0.0000    2.3532 C   0  0  0  0  0  0  0  0  0  0  0  0
    4.6240    0.0003    1.7799 H   0  0  0  0  0  0  0  0  0  0  0  0
    3.6984   -0.8819    2.9962 H   0  0  0  0  0  0  0  0  0  0  0  0
    3.6980    0.8816    2.9966 H   0  0  0  0  0  0  0  0  0  0  0  0
    2.5001    1.2487    0.5075 C   0  0  0  0  0  0  0  0  0  0  0  0
    3.5068    2.2107    0.6189 C   0  0  0  0  0  0  0  0  0  0  0  0
    4.2678    2.1277    1.3803 H   0  0  0  0  0  0  0  0  0  0  0  0
    3.5552    3.2884   -0.2628 C   0  0  0  0  0  0  0  0  0  0  0  0
    4.3386    4.0344   -0.1732 H   0  0  0  0  0  0  0  0  0  0  0  0
    2.5994    3.3629   -1.2675 C   0  0  0  0  0  0  0  0  0  0  0  0
    2.6044    4.1516   -2.0116 H   0  0  0  0  0  0  0  0  0  0  0  0
    1.6207    2.3810   -1.3192 C   0  0  0  0  0  0  0  0  0  0  0  0
    0.9052    2.3832   -2.1217 H   0  0  0  0  0  0  0  0  0  0  0  0
    2.5006   -1.2482    0.5069 C   0  0  0  0  0  0  0  0  0  0  0  0
    3.5077   -2.2098    0.6179 C   0  0  0  0  0  0  0  0  0  0  0  0
    4.2686   -2.1268    1.3794 H   0  0  0  0  0  0  0  0  0  0  0  0
    3.5566   -3.2871   -0.2642 C   0  0  0  0  0  0  0  0  0  0  0  0
    4.3404   -4.0328   -0.1750 H   0  0  0  0  0  0  0  0  0  0  0  0
    2.6008   -3.3615   -1.2690 C   0  0  0  0  0  0  0  0  0  0  0  0
    2.6062   -4.1499   -2.0134 H   0  0  0  0  0  0  0  0  0  0  0  0
    1.6217   -2.3800   -1.3202 C   0  0  0  0  0  0  0  0  0  0  0  0
    0.9064   -2.3821   -2.1229 H   0  0  0  0  0  0  0  0  0  0  0  0
   -2.5008    1.2480    0.5070 C   0  0  0  0  0  0  0  0  0  0  0  0
   -3.5080    2.2095    0.6180 C   0  0  0  0  0  0  0  0  0  0  0  0
   -4.2692    2.1261    1.3792 H   0  0  0  0  0  0  0  0  0  0  0  0
   -3.5567    3.2871   -0.2637 C   0  0  0  0  0  0  0  0  0  0  0  0
   -4.3406    4.0327   -0.1745 H   0  0  0  0  0  0  0  0  0  0  0  0
   -2.6005    3.3620   -1.2681 C   0  0  0  0  0  0  0  0  0  0  0  0
   -2.6056    4.1508   -2.0121 H   0  0  0  0  0  0  0  0  0  0  0  0
   -1.6213    2.3806   -1.3194 C   0  0  0  0  0  0  0  0  0  0  0  0
   -0.9055    2.3832   -2.1217 H   0  0  0  0  0  0  0  0  0  0  0  0
   -2.5001   -1.2489    0.5071 C   0  0  0  0  0  0  0  0  0  0  0  0
   -3.5068   -2.2110    0.6182 C   0  0  0  0  0  0  0  0  0  0  0  0
   -4.2679   -2.1281    1.3795 H   0  0  0  0  0  0  0  0  0  0  0  0
   -3.5549   -3.2886   -0.2635 C   0  0  0  0  0  0  0  0  0  0  0  0
   -4.3383   -4.0347   -0.1742 H   0  0  0  0  0  0  0  0  0  0  0  0
   -2.5988   -3.3630   -1.2680 C   0  0  0  0  0  0  0  0  0  0  0  0
   -2.6036   -4.1517   -2.0121 H   0  0  0  0  0  0  0  0  0  0  0  0
   -1.6202   -2.3810   -1.3194 C   0  0  0  0  0  0  0  0  0  0  0  0
   -0.9045   -2.3832   -2.1218 H   0  0  0  0  0  0  0  0  0  0  0  0
   -0.0002    0.0004   -2.9512 Br  0  0  0  0  0  0  0  0  0  0  0  0
  2 12  2  0  0  0  0
  2 19  1  0  0  0  0
  2  1  9  0  0  0  0
  3 52  1  0  0  0  0
  3  1  9  0  0  0  0
  4 43  1  0  0  0  0
  4  1  9  0  0  0  0
  5 25  1  0  0  0  0
  5  1  9  0  0  0  0
  6 34  1  0  0  0  0
  6  1  9  0  0  0  0
  7  9  1  0  0  0  0
  7 10  1  0  0  0  0
  8  7  1  0  0  0  0
 11 12  1  0  0  0  0
 11  7  1  1  0  0  0
 12 13  1  0  0  0  0
 13 14  1  0  0  0  0
 13 15  2  0  0  0  0
 15 16  1  0  0  0  0
 17 18  1  0  0  0  0
 17 15  1  0  0  0  0
 19 17  2  0  0  0  0
 20 19  1  0  0  0  0
 20 21  1  1  0  0  0
 21 23  1  0  0  0  0
 21 24  1  0  0  0  0
 22 21  1  0  0  0  0
 25 26  2  0  0  0  0
 25 20  1  0  0  0  0
 26 27  1  0  0  0  0
 28 29  1  0  0  0  0
 28 26  1  0  0  0  0
 30 28  2  0  0  0  0
 31 30  1  0  0  0  0
 32 30  1  0  0  0  0
 32  5  2  0  0  0  0
 33 32  1  0  0  0  0
 34 35  2  0  0  0  0
 34 20  1  0  0  0  0
 35 36  1  0  0  0  0
 37 38  1  0  0  0  0
 37 35  1  0  0  0  0
 39 37  2  0  0  0  0
 40 39  1  0  0  0  0
 41 39  1  0  0  0  0
 41  6  2  0  0  0  0
 42 41  1  0  0  0  0
 43 44  2  0  0  0  0
 43 11  1  0  0  0  0
 44 45  1  0  0  0  0
 46 47  1  0  0  0  0
 46 44  1  0  0  0  0
 48 46  2  0  0  0  0
 49 48  1  0  0  0  0
 50 48  1  0  0  0  0
 50  4  2  0  0  0  0
 51 50  1  0  0  0  0
 52 53  2  0  0  0  0
 52 11  1  0  0  0  0
 53 54  1  0  0  0  0
 55 56  1  0  0  0  0
 55 53  1  0  0  0  0
 57 55  2  0  0  0  0
 58 57  1  0  0  0  0
 59 57  1  0  0  0  0
 59  3  2  0  0  0  0
 60 59  1  0  0  0  0
 61  1  1  0  0  0  0
M  CHG  1   1   2
M  END
$$$$
