
 OpenBabel02052520093D

 62 70  0  0  0  0  0  0  0  0999 V2000
    0.0067   -0.0001   -0.7608 Fe  0  2  0  0  0  0  0  0  0  0  0  0
    0.0729   -0.0001   -2.5541 O   0  0  0  0  0  0  0  0  0  0  0  0
   -0.0607   -0.0002    1.2949 N   0  0  0  0  0  0  0  0  0  0  0  0
   -1.5064   -1.3524   -0.7428 N   0  0  0  0  0  0  0  0  0  0  0  0
   -1.5067    1.3519   -0.7432 N   0  0  0  0  0  0  0  0  0  0  0  0
    1.5601    1.2993   -0.7092 N   0  0  0  0  0  0  0  0  0  0  0  0
    1.5606   -1.2989   -0.7096 N   0  0  0  0  0  0  0  0  0  0  0  0
   -3.7889    0.0000    1.9459 C   0  0  0  0  0  0  0  0  0  0  0  0
   -4.6922    0.0004    1.3326 H   0  0  0  0  0  0  0  0  0  0  0  0
   -3.8196    0.8817    2.5888 H   0  0  0  0  0  0  0  0  0  0  0  0
   -3.8200   -0.8821    2.5883 H   0  0  0  0  0  0  0  0  0  0  0  0
   -2.5274   -0.0000    1.0611 C   0  0  2  0  0  0  0  0  0  0  0  0
   -1.2570   -0.0004    1.9294 C   0  0  0  0  0  0  0  0  0  0  0  0
   -1.3298   -0.0010    3.3219 C   0  0  0  0  0  0  0  0  0  0  0  0
   -2.2808   -0.0012    3.8328 H   0  0  0  0  0  0  0  0  0  0  0  0
   -0.1575   -0.0015    4.0679 C   0  0  0  0  0  0  0  0  0  0  0  0
   -0.1963   -0.0020    5.1528 H   0  0  0  0  0  0  0  0  0  0  0  0
    1.0632   -0.0012    3.4067 C   0  0  0  0  0  0  0  0  0  0  0  0
    1.9775   -0.0015    3.9810 H   0  0  0  0  0  0  0  0  0  0  0  0
    1.0857   -0.0005    2.0116 C   0  0  0  0  0  0  0  0  0  0  0  0
    2.4011   -0.0000    1.2266 C   0  0  2  0  0  0  0  0  0  0  0  0
    3.6069    0.0001    2.1854 C   0  0  0  0  0  0  0  0  0  0  0  0
    4.5450    0.0005    1.6271 H   0  0  0  0  0  0  0  0  0  0  0  0
    3.5988   -0.8818    2.8290 H   0  0  0  0  0  0  0  0  0  0  0  0
    3.5982    0.8816    2.8295 H   0  0  0  0  0  0  0  0  0  0  0  0
    2.4589    1.2406    0.3002 C   0  0  0  0  0  0  0  0  0  0  0  0
    3.4574    2.2103    0.4093 C   0  0  0  0  0  0  0  0  0  0  0  0
    4.1611    2.1919    1.2291 H   0  0  0  0  0  0  0  0  0  0  0  0
    3.5772    3.2031   -0.5639 C   0  0  0  0  0  0  0  0  0  0  0  0
    4.3525    3.9582   -0.4789 H   0  0  0  0  0  0  0  0  0  0  0  0
    2.7252    3.1703   -1.6626 C   0  0  0  0  0  0  0  0  0  0  0  0
    2.8216    3.8713   -2.4843 H   0  0  0  0  0  0  0  0  0  0  0  0
    1.7358    2.1963   -1.6971 C   0  0  0  0  0  0  0  0  0  0  0  0
    1.0906    2.0735   -2.5535 H   0  0  0  0  0  0  0  0  0  0  0  0
    2.4595   -1.2402    0.2997 C   0  0  0  0  0  0  0  0  0  0  0  0
    3.4586   -2.2094    0.4082 C   0  0  0  0  0  0  0  0  0  0  0  0
    4.1624   -2.1910    1.2280 H   0  0  0  0  0  0  0  0  0  0  0  0
    3.5789   -3.2017   -0.5654 C   0  0  0  0  0  0  0  0  0  0  0  0
    4.3545   -3.9563   -0.4809 H   0  0  0  0  0  0  0  0  0  0  0  0
    2.7266   -3.1688   -1.6640 C   0  0  0  0  0  0  0  0  0  0  0  0
    2.8233   -3.8694   -2.4861 H   0  0  0  0  0  0  0  0  0  0  0  0
    1.7367   -2.1953   -1.6980 C   0  0  0  0  0  0  0  0  0  0  0  0
    1.0914   -2.0724   -2.5543 H   0  0  0  0  0  0  0  0  0  0  0  0
   -2.5155    1.2483    0.1522 C   0  0  0  0  0  0  0  0  0  0  0  0
   -3.5170    2.2209    0.2049 C   0  0  0  0  0  0  0  0  0  0  0  0
   -4.3187    2.1518    0.9258 H   0  0  0  0  0  0  0  0  0  0  0  0
   -3.5022    3.2930   -0.6863 C   0  0  0  0  0  0  0  0  0  0  0  0
   -4.2802    4.0488   -0.6435 H   0  0  0  0  0  0  0  0  0  0  0  0
   -2.4901    3.3580   -1.6381 C   0  0  0  0  0  0  0  0  0  0  0  0
   -2.4463    4.1505   -2.3769 H   0  0  0  0  0  0  0  0  0  0  0  0
   -1.5194    2.3662   -1.6307 C   0  0  0  0  0  0  0  0  0  0  0  0
   -0.7331    2.3596   -2.3670 H   0  0  0  0  0  0  0  0  0  0  0  0
   -2.5158   -1.2482    0.1519 C   0  0  0  0  0  0  0  0  0  0  0  0
   -3.5179   -2.2202    0.2039 C   0  0  0  0  0  0  0  0  0  0  0  0
   -4.3202   -2.1505    0.9240 H   0  0  0  0  0  0  0  0  0  0  0  0
   -3.5029   -3.2925   -0.6871 C   0  0  0  0  0  0  0  0  0  0  0  0
   -4.2815   -4.0477   -0.6448 H   0  0  0  0  0  0  0  0  0  0  0  0
   -2.4899   -3.3584   -1.6378 C   0  0  0  0  0  0  0  0  0  0  0  0
   -2.4457   -4.1513   -2.3762 H   0  0  0  0  0  0  0  0  0  0  0  0
   -1.5188   -2.3671   -1.6299 C   0  0  0  0  0  0  0  0  0  0  0  0
   -0.7316   -2.3612   -2.3654 H   0  0  0  0  0  0  0  0  0  0  0  0
   -0.8251   -0.0004   -2.9288 H   0  0  0  0  0  0  0  0  0  0  0  0
  2  1  1  0  0  0  0
  3 13  2  0  0  0  0
  3 20  1  0  0  0  0
  3  1  9  0  0  0  0
  4 53  1  0  0  0  0
  4  1  9  0  0  0  0
  5 44  1  0  0  0  0
  5  1  9  0  0  0  0
  6 26  1  0  0  0  0
  6  1  9  0  0  0  0
  7 35  1  0  0  0  0
  7  1  9  0  0  0  0
  8 11  1  0  0  0  0
  8 10  1  0  0  0  0
  9  8  1  0  0  0  0
 12 13  1  0  0  0  0
 12  8  1  1  0  0  0
 13 14  1  0  0  0  0
 14 15  1  0  0  0  0
 14 16  2  0  0  0  0
 16 17  1  0  0  0  0
 18 19  1  0  0  0  0
 18 16  1  0  0  0  0
 20 18  2  0  0  0  0
 21 20  1  0  0  0  0
 21 22  1  1  0  0  0
 22 24  1  0  0  0  0
 22 25  1  0  0  0  0
 23 22  1  0  0  0  0
 26 27  2  0  0  0  0
 26 21  1  0  0  0  0
 27 28  1  0  0  0  0
 29 30  1  0  0  0  0
 29 27  1  0  0  0  0
 31 29  2  0  0  0  0
 32 31  1  0  0  0  0
 33 31  1  0  0  0  0
 33  6  2  0  0  0  0
 34 33  1  0  0  0  0
 35 36  2  0  0  0  0
 35 21  1  0  0  0  0
 36 37  1  0  0  0  0
 38 39  1  0  0  0  0
 38 36  1  0  0  0  0
 40 38  2  0  0  0  0
 41 40  1  0  0  0  0
 42 40  1  0  0  0  0
 42  7  2  0  0  0  0
 43 42  1  0  0  0  0
 44 45  2  0  0  0  0
 44 12  1  0  0  0  0
 45 46  1  0  0  0  0
 47 48  1  0  0  0  0
 47 45  1  0  0  0  0
 49 51  1  0  0  0  0
 49 47  2  0  0  0  0
 50 49  1  0  0  0  0
 51  5  2  0  0  0  0
 52 51  1  0  0  0  0
 53 54  2  0  0  0  0
 53 12  1  0  0  0  0
 54 55  1  0  0  0  0
 56 57  1  0  0  0  0
 56 54  1  0  0  0  0
 58 60  1  0  0  0  0
 58 56  2  0  0  0  0
 59 58  1  0  0  0  0
 60  4  2  0  0  0  0
 61 60  1  0  0  0  0
 62  2  1  0  0  0  0
M  CHG  1   1   2
M  END
$$$$
