
 OpenBabel02052520093D

 63 70  0  0  0  0  0  0  0  0999 V2000
    1.2158    0.4236    0.3952 Fe  0  1  0  0  0  0  0  0  0  0  0  0
    0.1504    1.4224    1.9367 N   0  0  0  0  0  0  0  0  0  0  0  0
    1.0881    2.0054   -1.0043 N   0  0  0  0  0  0  0  0  0  0  0  0
    1.8824   -0.9596   -1.1219 N   0  0  0  0  0  0  0  0  0  0  0  0
    1.0244   -1.5123    1.3336 N   0  0  0  0  0  0  0  0  0  0  0  0
   -1.0835    0.4659   -0.3718 N   0  0  1  0  0  0  0  0  0  0  0  0
    0.7992    1.7409    3.0803 C   0  0  0  0  0  0  0  0  0  0  0  0
    1.8605    1.5187    3.0951 H   0  0  0  0  0  0  0  0  0  0  0  0
    0.1421    2.3200    4.1600 C   0  0  0  0  0  0  0  0  0  0  0  0
    0.6950    2.5687    5.0596 H   0  0  0  0  0  0  0  0  0  0  0  0
   -1.2277    2.5725    4.0526 C   0  0  0  0  0  0  0  0  0  0  0  0
   -1.7725    3.0200    4.8786 H   0  0  0  0  0  0  0  0  0  0  0  0
   -1.8889    2.2580    2.8610 C   0  0  0  0  0  0  0  0  0  0  0  0
   -2.9459    2.4770    2.7418 H   0  0  0  0  0  0  0  0  0  0  0  0
   -1.1660    1.6963    1.8126 C   0  0  0  0  0  0  0  0  0  0  0  0
   -1.7700    1.5107    0.4363 C   0  0  0  0  0  0  0  0  0  0  0  0
   -1.6628    2.4633   -0.0932 H   0  0  0  0  0  0  0  0  0  0  0  0
   -2.8494    1.3277    0.5021 H   0  0  0  0  0  0  0  0  0  0  0  0
    2.0281    2.9739   -1.0195 C   0  0  0  0  0  0  0  0  0  0  0  0
    2.8274    2.8647   -0.2948 H   0  0  0  0  0  0  0  0  0  0  0  0
    1.9654    4.0355   -1.9181 C   0  0  0  0  0  0  0  0  0  0  0  0
    2.7367    4.7983   -1.9076 H   0  0  0  0  0  0  0  0  0  0  0  0
    0.8979    4.0922   -2.8157 C   0  0  0  0  0  0  0  0  0  0  0  0
    0.8181    4.9098   -3.5259 H   0  0  0  0  0  0  0  0  0  0  0  0
   -0.0784    3.0873   -2.7882 C   0  0  0  0  0  0  0  0  0  0  0  0
   -0.9214    3.1144   -3.4714 H   0  0  0  0  0  0  0  0  0  0  0  0
    0.0500    2.0519   -1.8712 C   0  0  0  0  0  0  0  0  0  0  0  0
   -0.9163    0.8886   -1.7879 C   0  0  0  0  0  0  0  0  0  0  0  0
   -1.8723    1.1537   -2.2561 H   0  0  0  0  0  0  0  0  0  0  0  0
   -0.4989    0.0333   -2.3325 H   0  0  0  0  0  0  0  0  0  0  0  0
    2.3561   -0.5779   -2.3235 C   0  0  0  0  0  0  0  0  0  0  0  0
    2.1976    0.4589   -2.5919 H   0  0  0  0  0  0  0  0  0  0  0  0
    3.0313   -1.4458   -3.1754 C   0  0  0  0  0  0  0  0  0  0  0  0
    3.3998   -1.0910   -4.1319 H   0  0  0  0  0  0  0  0  0  0  0  0
    3.2318   -2.7618   -2.7584 C   0  0  0  0  0  0  0  0  0  0  0  0
    3.7619   -3.4691   -3.3887 H   0  0  0  0  0  0  0  0  0  0  0  0
    2.7564   -3.1583   -1.5076 C   0  0  0  0  0  3  0  0  0  0  0  0
    2.9269   -4.1729   -1.1691 H   0  0  0  0  0  0  0  0  0  0  0  0
    2.0889   -2.2354   -0.6988 C   0  0  0  0  0  0  0  0  0  0  0  0
    1.5979   -2.5463    0.6638 C   0  0  0  0  0  0  0  0  0  0  0  0
    1.7228   -3.8035    1.2621 C   0  0  0  0  0  0  0  0  0  0  0  0
    2.1828   -4.6276    0.7310 H   0  0  0  0  0  0  0  0  0  0  0  0
    1.2657   -3.9951    2.5659 C   0  0  0  0  0  0  0  0  0  0  0  0
    1.3712   -4.9647    3.0429 H   0  0  0  0  0  0  0  0  0  0  0  0
    0.6840   -2.9245    3.2468 C   0  0  0  0  0  0  0  0  0  0  0  0
    0.3268   -3.0276    4.2658 H   0  0  0  0  0  0  0  0  0  0  0  0
    0.5851   -1.7015    2.5925 C   0  0  0  0  0  0  0  0  0  0  0  0
    0.1566   -0.8364    3.0833 H   0  0  0  0  0  0  0  0  0  0  0  0
   -1.6808   -0.8836   -0.2174 C   0  0  0  0  0  0  0  0  0  0  0  0
   -1.6667   -1.1221    0.8506 H   0  0  0  0  0  0  0  0  0  0  0  0
   -1.0093   -1.5955   -0.7046 H   0  0  0  0  0  0  0  0  0  0  0  0
   -3.0827   -1.0833   -0.7797 C   0  0  2  0  0  3  0  0  0  0  0  0
   -4.1414   -1.0696    0.0800 N   0  0  0  0  0  0  0  0  0  0  0  0
   -3.9580   -0.9481    1.0738 H   0  0  0  0  0  0  0  0  0  0  0  0
   -3.3590   -1.3130   -2.1221 C   0  0  0  0  0  0  0  0  0  0  0  0
   -2.5405   -1.3633   -2.8312 H   0  0  0  0  0  0  0  0  0  0  0  0
   -4.6784   -1.5057   -2.5534 C   0  0  0  0  0  0  0  0  0  0  0  0
   -4.8830   -1.6920   -3.6038 H   0  0  0  0  0  0  0  0  0  0  0  0
   -5.4305   -1.2592   -0.2946 C   0  0  0  0  0  0  0  0  0  0  0  0
   -6.1759   -1.2394    0.4932 H   0  0  0  0  0  0  0  0  0  0  0  0
   -5.7283   -1.4744   -1.6304 C   0  0  0  0  0  0  0  0  0  0  0  0
   -6.7586   -1.6284   -1.9330 H   0  0  0  0  0  0  0  0  0  0  0  0
    2.7807    0.9153    1.0381 F   0  0  0  0  0  0  0  0  0  0  0  0
  1 63  1  0  0  0  0
  1  5  1  0  0  0  0
  2  7  2  0  0  0  0
  2  1  9  0  0  0  0
  3  1  9  0  0  0  0
  4 39  1  0  0  0  0
  4  1  9  0  0  0  0
  5 47  1  0  0  0  0
  6 49  1  1  0  0  0
  6 16  1  0  0  0  0
  6  1  9  0  0  0  0
  7  8  1  0  0  0  0
  7  9  1  0  0  0  0
  9 10  1  0  0  0  0
 11  9  2  0  0  0  0
 11 12  1  0  0  0  0
 13 11  1  0  0  0  0
 14 13  1  0  0  0  0
 15  2  1  0  0  0  0
 15 13  2  0  0  0  0
 16 18  1  0  0  0  0
 16 15  1  0  0  0  0
 17 16  1  0  0  0  0
 19  3  2  0  0  0  0
 19 20  1  0  0  0  0
 21 22  1  0  0  0  0
 21 19  1  0  0  0  0
 23 25  1  0  0  0  0
 23 21  2  0  0  0  0
 24 23  1  0  0  0  0
 25 27  2  0  0  0  0
 26 25  1  0  0  0  0
 27 28  1  0  0  0  0
 27  3  1  0  0  0  0
 28  6  1  0  0  0  0
 29 28  1  0  0  0  0
 30 28  1  0  0  0  0
 31  4  2  0  0  0  0
 32 31  1  0  0  0  0
 33 35  2  0  0  0  0
 33 31  1  0  0  0  0
 34 33  1  0  0  0  0
 35 37  1  0  0  0  0
 36 35  1  0  0  0  0
 37 38  1  0  0  0  0
 37 39  1  0  0  0  0
 40 39  2  0  0  0  0
 40 41  1  0  0  0  0
 40  5  1  0  0  0  0
 41 43  2  0  0  0  0
 42 41  1  0  0  0  0
 43 44  1  0  0  0  0
 43 45  1  0  0  0  0
 45 46  1  0  0  0  0
 47 48  1  0  0  0  0
 47 45  2  0  0  0  0
 49 50  1  0  0  0  0
 51 49  1  0  0  0  0
 52 49  1  1  0  0  0
 52 53  1  0  0  0  0
 53 54  1  0  0  0  0
 55 52  1  0  0  0  0
 56 55  1  0  0  0  0
 57 55  2  0  0  0  0
 57 61  1  0  0  0  0
 58 57  1  0  0  0  0
 59 53  1  0  0  0  0
 59 60  1  0  0  0  0
 61 59  2  0  0  0  0
 62 61  1  0  0  0  0
M  RAD  2  37   2  52   2
M  CHG  1   1   3
M  END
$$$$
