
 OpenBabel02052520093D

 63 69  0  0  0  0  0  0  0  0999 V2000
   -0.9984   -0.2716    0.1368 Fe  0  1  0  0  0  0  0  0  0  0  0  0
   -0.2858   -1.5818    1.6859 N   0  0  0  0  0  2  0  0  0  0  0  0
   -0.8758   -1.7125   -1.4517 N   0  0  0  0  0  0  0  0  0  0  0  0
   -1.2093    1.3588   -1.2726 N   0  0  0  0  0  0  0  0  0  0  0  0
   -0.6576    1.5062    1.3281 N   0  0  0  0  0  0  0  0  0  0  0  0
    1.3315   -0.5295   -0.3485 N   0  0  0  0  0  0  0  0  0  0  0  0
   -1.0516   -1.9271    2.7479 C   0  0  0  0  0  3  0  0  0  0  0  0
   -2.0694   -1.5570    2.7409 H   0  0  0  0  0  0  0  0  0  0  0  0
   -0.5713   -2.7067    3.7938 C   0  0  0  0  0  0  0  0  0  0  0  0
   -1.2274   -2.9637    4.6187 H   0  0  0  0  0  0  0  0  0  0  0  0
    0.7538   -3.1430    3.7513 C   0  0  0  0  0  0  0  0  0  0  0  0
    1.1633   -3.7516    4.5519 H   0  0  0  0  0  0  0  0  0  0  0  0
    1.5442   -2.7927    2.6534 C   0  0  0  0  0  0  0  0  0  0  0  0
    2.5705   -3.1402    2.5795 H   0  0  0  0  0  0  0  0  0  0  0  0
    0.9928   -2.0242    1.6319 C   0  0  0  0  0  0  0  0  0  0  0  0
    1.7543   -1.7717    0.3502 C   0  0  0  0  0  0  0  0  0  0  0  0
    1.5524   -2.6140   -0.3192 H   0  0  0  0  0  0  0  0  0  0  0  0
    2.8366   -1.7869    0.5282 H   0  0  0  0  0  0  0  0  0  0  0  0
   -1.8678   -2.5824   -1.7420 C   0  0  0  0  0  0  0  0  0  0  0  0
   -2.7469   -2.5328   -1.1116 H   0  0  0  0  0  0  0  0  0  0  0  0
   -1.7760   -3.4873   -2.7958 C   0  0  0  0  0  0  0  0  0  0  0  0
   -2.5983   -4.1667   -2.9940 H   0  0  0  0  0  0  0  0  0  0  0  0
   -0.6190   -3.4969   -3.5745 C   0  0  0  0  0  0  0  0  0  0  0  0
   -0.5148   -4.1905   -4.4035 H   0  0  0  0  0  0  0  0  0  0  0  0
    0.4155   -2.6058   -3.2650 C   0  0  0  0  0  0  0  0  0  0  0  0
    1.3336   -2.6003   -3.8442 H   0  0  0  0  0  0  0  0  0  0  0  0
    0.2547   -1.7263   -2.2015 C   0  0  0  0  0  0  0  0  0  0  0  0
    1.3133   -0.7137   -1.8217 C   0  0  0  0  0  0  0  0  0  0  0  0
    2.2904   -1.0294   -2.2083 H   0  0  0  0  0  0  0  0  0  0  0  0
    1.0714    0.2576   -2.2673 H   0  0  0  0  0  0  0  0  0  0  0  0
   -1.5734    1.1876   -2.5578 C   0  0  0  0  0  0  0  0  0  0  0  0
   -1.5607    0.1698   -2.9262 H   0  0  0  0  0  0  0  0  0  0  0  0
   -1.9702    2.2412   -3.3743 C   0  0  0  0  0  0  0  0  0  0  0  0
   -2.2610    2.0520   -4.4020 H   0  0  0  0  0  0  0  0  0  0  0  0
   -2.0007    3.5259   -2.8312 C   0  0  0  0  0  0  0  0  0  0  0  0
   -2.3136    4.3751   -3.4307 H   0  0  0  0  0  0  0  0  0  0  0  0
   -1.6423    3.7059   -1.4949 C   0  0  0  0  0  0  0  0  0  0  0  0
   -1.6874    4.6966   -1.0599 H   0  0  0  0  0  0  0  0  0  0  0  0
   -1.2575    2.6030   -0.7276 C   0  0  0  0  0  0  0  0  0  0  0  0
   -0.9313    2.6869    0.7143 C   0  0  0  0  0  0  0  0  0  0  0  0
   -0.9290    3.8847    1.4357 C   0  0  0  0  0  0  0  0  0  0  0  0
   -1.1490    4.8264    0.9481 H   0  0  0  0  0  0  0  0  0  0  0  0
   -0.6586    3.8664    2.8036 C   0  0  0  0  0  0  0  0  0  0  0  0
   -0.6697    4.7902    3.3739 H   0  0  0  0  0  0  0  0  0  0  0  0
   -0.3863    2.6468    3.4252 C   0  0  0  0  0  0  0  0  0  0  0  0
   -0.1838    2.5851    4.4890 H   0  0  0  0  0  0  0  0  0  0  0  0
   -0.3965    1.4932    2.6488 C   0  0  0  0  0  0  0  0  0  0  0  0
   -0.2061    0.5221    3.0878 H   0  0  0  0  0  0  0  0  0  0  0  0
    2.0789    0.6743    0.0904 C   0  0  0  0  0  0  0  0  0  0  0  0
    1.9493    0.7581    1.1736 H   0  0  0  0  0  0  0  0  0  0  0  0
    1.5849    1.5428   -0.3521 H   0  0  0  0  0  0  0  0  0  0  0  0
    3.5591    0.7319   -0.2647 C   0  0  2  0  0  3  0  0  0  0  0  0
    4.4754    0.4216    0.6967 N   0  0  0  0  0  0  0  0  0  0  0  0
    4.1396    0.1800    1.6267 H   0  0  0  0  0  0  0  0  0  0  0  0
    4.0486    1.1174   -1.5067 C   0  0  0  0  0  0  0  0  0  0  0  0
    3.3510    1.4023   -2.2862 H   0  0  0  0  0  0  0  0  0  0  0  0
    5.4291    1.1652   -1.7429 C   0  0  0  0  0  0  0  0  0  0  0  0
    5.8019    1.4752   -2.7149 H   0  0  0  0  0  0  0  0  0  0  0  0
    5.8178    0.4625    0.5120 C   0  0  0  0  0  0  0  0  0  0  0  0
    6.4363    0.2066    1.3655 H   0  0  0  0  0  0  0  0  0  0  0  0
    6.3257    0.8300   -0.7235 C   0  0  0  0  0  0  0  0  0  0  0  0
    7.3995    0.8657   -0.8738 H   0  0  0  0  0  0  0  0  0  0  0  0
   -3.3635   -0.3606    0.5851 Br  0  0  0  0  0  0  0  0  0  0  0  0
  1 63  1  0  0  0  0
  1  5  1  0  0  0  0
  2  7  1  0  0  0  0
  3  1  9  0  0  0  0
  4 39  1  0  0  0  0
  4  1  1  0  0  0  0
  5 47  1  0  0  0  0
  6 28  1  0  0  0  0
  6 49  1  0  0  0  0
  6 16  1  0  0  0  0
  6  1  9  0  0  0  0
  7  9  1  0  0  0  0
  8  7  1  0  0  0  0
  9 10  1  0  0  0  0
 11  9  2  0  0  0  0
 11 12  1  0  0  0  0
 13 11  1  0  0  0  0
 14 13  1  0  0  0  0
 15  2  1  0  0  0  0
 15 13  2  0  0  0  0
 16 18  1  0  0  0  0
 16 15  1  0  0  0  0
 17 16  1  0  0  0  0
 19  3  2  0  0  0  0
 19 20  1  0  0  0  0
 21 19  1  0  0  0  0
 22 21  1  0  0  0  0
 23 25  1  0  0  0  0
 23 21  2  0  0  0  0
 24 23  1  0  0  0  0
 25 27  2  0  0  0  0
 26 25  1  0  0  0  0
 27 28  1  0  0  0  0
 27  3  1  0  0  0  0
 29 28  1  0  0  0  0
 30 28  1  0  0  0  0
 31  4  1  0  0  0  0
 32 31  1  0  0  0  0
 33 35  1  0  0  0  0
 33 31  2  0  0  0  0
 34 33  1  0  0  0  0
 35 37  2  0  0  0  0
 36 35  1  0  0  0  0
 37 38  1  0  0  0  0
 37 39  1  0  0  0  0
 40 39  2  0  0  0  0
 40  5  1  0  0  0  0
 40 41  1  0  0  0  0
 41 43  2  0  0  0  0
 42 41  1  0  0  0  0
 43 44  1  0  0  0  0
 43 45  1  0  0  0  0
 45 46  1  0  0  0  0
 47 48  1  0  0  0  0
 47 45  2  0  0  0  0
 49 50  1  0  0  0  0
 51 49  1  0  0  0  0
 52 49  1  1  0  0  0
 52 53  1  0  0  0  0
 53 54  1  0  0  0  0
 55 52  1  0  0  0  0
 56 55  1  0  0  0  0
 57 55  2  0  0  0  0
 57 61  1  0  0  0  0
 58 57  1  0  0  0  0
 59 53  1  0  0  0  0
 59 60  1  0  0  0  0
 61 59  2  0  0  0  0
 62 61  1  0  0  0  0
M  RAD  3   2   2   7   2  52   2
M  CHG  1   1   3
M  END
$$$$
