
 OpenBabel02052520093D

 65 71  0  0  0  0  0  0  0  0999 V2000
   -0.9772   -0.2872    0.0986 Fe  0  1  0  0  0  0  0  0  0  0  0  0
   -0.2905   -1.5752    1.6825 N   0  0  0  0  0  2  0  0  0  0  0  0
   -0.7650   -1.7336   -1.4811 N   0  0  0  0  0  0  0  0  0  0  0  0
   -1.1231    1.3535   -1.3413 N   0  0  0  0  0  0  0  0  0  0  0  0
   -0.6661    1.5336    1.2806 N   0  0  0  0  0  0  0  0  0  0  0  0
    1.4110   -0.5624   -0.2952 N   0  0  0  0  0  0  0  0  0  0  0  0
   -1.1097   -1.8926    2.7091 C   0  0  0  0  0  3  0  0  0  0  0  0
   -2.1250   -1.5206    2.6325 H   0  0  0  0  0  0  0  0  0  0  0  0
   -0.6844   -2.6446    3.7986 C   0  0  0  0  0  0  0  0  0  0  0  0
   -1.3783   -2.8821    4.5979 H   0  0  0  0  0  0  0  0  0  0  0  0
    0.6419   -3.0802    3.8313 C   0  0  0  0  0  0  0  0  0  0  0  0
    1.0108   -3.6674    4.6669 H   0  0  0  0  0  0  0  0  0  0  0  0
    1.4869   -2.7598    2.7654 C   0  0  0  0  0  0  0  0  0  0  0  0
    2.5149   -3.1099    2.7520 H   0  0  0  0  0  0  0  0  0  0  0  0
    0.9859   -2.0167    1.6990 C   0  0  0  0  0  0  0  0  0  0  0  0
    1.8010   -1.7909    0.4434 C   0  0  0  0  0  0  0  0  0  0  0  0
    1.6204   -2.6455   -0.2166 H   0  0  0  0  0  0  0  0  0  0  0  0
    2.8755   -1.8104    0.6656 H   0  0  0  0  0  0  0  0  0  0  0  0
   -1.7604   -2.5845   -1.8033 C   0  0  0  0  0  0  0  0  0  0  0  0
   -2.6619   -2.5041   -1.2070 H   0  0  0  0  0  0  0  0  0  0  0  0
   -1.6421   -3.5066   -2.8395 C   0  0  0  0  0  0  0  0  0  0  0  0
   -2.4667   -4.1735   -3.0679 H   0  0  0  0  0  0  0  0  0  0  0  0
   -0.4493   -3.5506   -3.5623 C   0  0  0  0  0  0  0  0  0  0  0  0
   -0.3211   -4.2593   -4.3749 H   0  0  0  0  0  0  0  0  0  0  0  0
    0.5879   -2.6756   -3.2197 C   0  0  0  0  0  0  0  0  0  0  0  0
    1.5307   -2.6967   -3.7574 H   0  0  0  0  0  0  0  0  0  0  0  0
    0.3954   -1.7769   -2.1764 C   0  0  0  0  0  0  0  0  0  0  0  0
    1.4496   -0.7703   -1.7638 C   0  0  0  0  0  0  0  0  0  0  0  0
    2.4377   -1.0990   -2.1110 H   0  0  0  0  0  0  0  0  0  0  0  0
    1.2320    0.1963   -2.2327 H   0  0  0  0  0  0  0  0  0  0  0  0
   -1.4248    1.1736   -2.6404 C   0  0  0  0  0  0  0  0  0  0  0  0
   -1.4055    0.1505   -2.9958 H   0  0  0  0  0  0  0  0  0  0  0  0
   -1.7622    2.2229   -3.4896 C   0  0  0  0  0  0  0  0  0  0  0  0
   -2.0020    2.0263   -4.5290 H   0  0  0  0  0  0  0  0  0  0  0  0
   -1.7960    3.5146   -2.9641 C   0  0  0  0  0  0  0  0  0  0  0  0
   -2.0611    4.3618   -3.5890 H   0  0  0  0  0  0  0  0  0  0  0  0
   -1.4999    3.7053   -1.6143 C   0  0  0  0  0  0  0  0  0  0  0  0
   -1.5449    4.7029   -1.1952 H   0  0  0  0  0  0  0  0  0  0  0  0
   -1.1717    2.6050   -0.8162 C   0  0  0  0  0  0  0  0  0  0  0  0
   -0.8960    2.7069    0.6378 C   0  0  0  0  0  0  0  0  0  0  0  0
   -0.8895    3.9197    1.3351 C   0  0  0  0  0  0  0  0  0  0  0  0
   -1.0725    4.8562    0.8228 H   0  0  0  0  0  0  0  0  0  0  0  0
   -0.6582    3.9237    2.7102 C   0  0  0  0  0  0  0  0  0  0  0  0
   -0.6631    4.8592    3.2612 H   0  0  0  0  0  0  0  0  0  0  0  0
   -0.4311    2.7115    3.3630 C   0  0  0  0  0  0  0  0  0  0  0  0
   -0.2588    2.6672    4.4330 H   0  0  0  0  0  0  0  0  0  0  0  0
   -0.4439    1.5433    2.6074 C   0  0  0  0  0  0  0  0  0  0  0  0
   -0.2835    0.5768    3.0699 H   0  0  0  0  0  0  0  0  0  0  0  0
    2.1368    0.6474    0.1547 C   0  0  0  0  0  0  0  0  0  0  0  0
    1.9583    0.7520    1.2294 H   0  0  0  0  0  0  0  0  0  0  0  0
    1.6658    1.5092   -0.3249 H   0  0  0  0  0  0  0  0  0  0  0  0
    3.6319    0.6964   -0.1328 C   0  0  2  0  0  3  0  0  0  0  0  0
    4.5021    0.3961    0.8730 N   0  0  0  0  0  0  0  0  0  0  0  0
    4.1222    0.1719    1.7902 H   0  0  0  0  0  0  0  0  0  0  0  0
    4.1794    1.0554   -1.3588 C   0  0  0  0  0  0  0  0  0  0  0  0
    3.5187    1.3302   -2.1733 H   0  0  0  0  0  0  0  0  0  0  0  0
    5.5689    1.0882   -1.5341 C   0  0  0  0  0  0  0  0  0  0  0  0
    5.9872    1.3773   -2.4939 H   0  0  0  0  0  0  0  0  0  0  0  0
    5.8519    0.4226    0.7475 C   0  0  0  0  0  0  0  0  0  0  0  0
    6.4295    0.1762    1.6318 H   0  0  0  0  0  0  0  0  0  0  0  0
    6.4168    0.7641   -0.4700 C   0  0  0  0  0  0  0  0  0  0  0  0
    7.4964    0.7882   -0.5735 H   0  0  0  0  0  0  0  0  0  0  0  0
   -2.8206   -0.4490    0.3988 N   0  0  0  0  0  0  0  0  0  0  0  0
   -4.0232   -0.3864    0.5294 C   0  0  0  0  0  0  0  0  0  0  0  0
   -5.5898   -0.3122    0.7014 S   0  0  0  0  0  0  0  0  0  0  0  0
  1 63  1  0  0  0  0
  1  5  1  0  0  0  0
  2 15  1  0  0  0  0
  2  7  1  0  0  0  0
  3  1  9  0  0  0  0
  4 39  1  0  0  0  0
  4  1  1  0  0  0  0
  5 47  1  0  0  0  0
  6 28  1  0  0  0  0
  6 49  1  0  0  0  0
  6 16  1  0  0  0  0
  6  1  9  0  0  0  0
  7  9  1  0  0  0  0
  8  7  1  0  0  0  0
  9 11  2  0  0  0  0
  9 10  1  0  0  0  0
 11 12  1  0  0  0  0
 13 11  1  0  0  0  0
 14 13  1  0  0  0  0
 15 13  2  0  0  0  0
 16 18  1  0  0  0  0
 16 15  1  0  0  0  0
 17 16  1  0  0  0  0
 19  3  2  0  0  0  0
 19 20  1  0  0  0  0
 21 19  1  0  0  0  0
 22 21  1  0  0  0  0
 23 25  1  0  0  0  0
 23 21  2  0  0  0  0
 24 23  1  0  0  0  0
 25 27  2  0  0  0  0
 26 25  1  0  0  0  0
 27 28  1  0  0  0  0
 27  3  1  0  0  0  0
 29 28  1  0  0  0  0
 30 28  1  0  0  0  0
 31  4  1  0  0  0  0
 32 31  1  0  0  0  0
 33 35  1  0  0  0  0
 33 31  2  0  0  0  0
 34 33  1  0  0  0  0
 35 37  2  0  0  0  0
 36 35  1  0  0  0  0
 37 38  1  0  0  0  0
 37 39  1  0  0  0  0
 40 39  2  0  0  0  0
 40  5  1  0  0  0  0
 40 41  1  0  0  0  0
 41 43  2  0  0  0  0
 42 41  1  0  0  0  0
 43 44  1  0  0  0  0
 43 45  1  0  0  0  0
 45 46  1  0  0  0  0
 47 48  1  0  0  0  0
 47 45  2  0  0  0  0
 49 50  1  0  0  0  0
 51 49  1  0  0  0  0
 52 49  1  1  0  0  0
 52 53  1  0  0  0  0
 53 54  1  0  0  0  0
 55 52  1  0  0  0  0
 56 55  1  0  0  0  0
 57 55  2  0  0  0  0
 57 61  1  0  0  0  0
 58 57  1  0  0  0  0
 59 53  1  0  0  0  0
 59 60  1  0  0  0  0
 61 59  2  0  0  0  0
 62 61  1  0  0  0  0
 63 64  2  0  0  0  0
 64 65  2  0  0  0  0
M  RAD  3   2   2   7   2  52   2
M  CHG  1   1   3
M  END
$$$$
