
 OpenBabel02052520093D

 62 70  0  0  0  0  0  0  0  0999 V2000
   -0.4292   -0.4842   -0.3690 Fe  0  2  0  0  0  0  0  0  0  0  0  0
   -2.5661   -0.1139    0.2724 N   0  0  0  0  0  0  0  0  0  0  0  0
    0.5037    1.0225    0.9123 N   0  0  0  0  0  0  0  0  0  0  0  0
    1.6849   -1.2933   -0.0821 N   0  0  0  0  0  0  0  0  0  0  0  0
   -0.6097   -1.5188    1.4507 N   0  0  2  0  0  0  0  0  0  0  0  0
   -1.9802   -2.0989    1.5322 C   0  0  0  0  0  0  0  0  0  0  0  0
   -3.0059   -1.0916    1.0693 C   0  0  0  0  0  0  0  0  0  0  0  0
   -4.3540   -1.2272    1.4483 C   0  0  0  0  0  0  0  0  0  0  0  0
   -5.2774   -0.3214    0.9631 C   0  0  0  0  0  0  0  0  0  0  0  0
   -4.8482    0.7301    0.1234 C   0  0  0  0  0  0  0  0  0  0  0  0
   -5.7424    1.7072   -0.3928 C   0  0  0  0  0  3  0  0  0  0  0  0
   -5.2771    2.7314   -1.2045 C   0  0  0  0  0  0  0  0  0  0  0  0
   -3.9077    2.8090   -1.5224 C   0  0  0  0  0  0  0  0  0  0  0  0
   -3.0063    1.8717   -1.0354 C   0  0  0  0  0  0  0  0  0  0  0  0
   -3.4579    0.8122   -0.2048 C   0  0  0  0  0  0  0  0  0  0  0  0
   -0.4320   -0.5160    2.5439 C   0  0  0  0  0  0  0  0  0  0  0  0
    0.5075    0.6057    2.1853 C   0  0  0  0  0  0  0  0  0  0  0  0
    1.2847    1.2043    3.1937 C   0  0  0  0  0  0  0  0  0  0  0  0
    2.0957    2.2721    2.8708 C   0  0  0  0  0  0  0  0  0  0  0  0
    2.1183    2.7468    1.5418 C   0  0  0  0  0  0  0  0  0  0  0  0
    2.9297    3.8449    1.1491 C   0  0  0  0  0  0  0  0  0  0  0  0
    2.9261    4.2961   -0.1612 C   0  0  0  0  0  0  0  0  0  0  0  0
    2.1031    3.6659   -1.1122 C   0  0  0  0  0  0  0  0  0  0  0  0
    1.2961    2.5885   -0.7652 C   0  0  0  0  0  0  0  0  0  0  0  0
    1.2906    2.0967    0.5694 C   0  0  0  0  0  0  0  0  0  0  0  0
    0.4247   -2.5919    1.5078 C   0  0  0  0  0  0  0  0  0  0  0  0
    1.7521   -2.1222    0.9626 C   0  0  0  0  0  0  0  0  0  0  0  0
    2.9713   -2.5958    1.4803 C   0  0  0  0  0  0  0  0  0  0  0  0
    4.1535   -2.1800    0.8931 C   0  0  0  0  0  0  0  0  0  0  0  0
    4.1118   -1.3075   -0.2175 C   0  0  0  0  0  0  0  0  0  0  0  0
    5.2797   -0.8473   -0.8836 C   0  0  0  0  0  0  0  0  0  0  0  0
    5.1823   -0.0047   -1.9858 C   0  0  0  0  0  0  0  0  0  0  0  0
    3.9203    0.3913   -2.4624 C   0  0  0  0  0  0  0  0  0  0  0  0
    2.7545   -0.0379   -1.8351 C   0  0  0  0  0  0  0  0  0  0  0  0
    2.8317   -0.8856   -0.6940 C   0  0  0  0  0  0  0  0  0  0  0  0
   -2.1923   -2.4392    2.5540 H   0  0  0  0  0  0  0  0  0  0  0  0
   -2.0200   -2.9662    0.8681 H   0  0  0  0  0  0  0  0  0  0  0  0
   -4.6532   -2.0374    2.1052 H   0  0  0  0  0  0  0  0  0  0  0  0
   -6.3276   -0.4063    1.2282 H   0  0  0  0  0  0  0  0  0  0  0  0
   -6.7966    1.6403   -0.1397 H   0  0  0  0  0  0  0  0  0  0  0  0
   -5.9684    3.4708   -1.5953 H   0  0  0  0  0  0  0  0  0  0  0  0
   -3.5511    3.6105   -2.1618 H   0  0  0  0  0  0  0  0  0  0  0  0
   -1.9579    1.9045   -1.3035 H   0  0  0  0  0  0  0  0  0  0  0  0
   -0.1140   -1.0173    3.4650 H   0  0  0  0  0  0  0  0  0  0  0  0
   -1.4092   -0.0664    2.7441 H   0  0  0  0  0  0  0  0  0  0  0  0
    1.2407    0.8210    4.2076 H   0  0  0  0  0  0  0  0  0  0  0  0
    2.7144    2.7485    3.6263 H   0  0  0  0  0  0  0  0  0  0  0  0
    3.5484    4.3318    1.8978 H   0  0  0  0  0  0  0  0  0  0  0  0
    3.5455    5.1396   -0.4485 H   0  0  0  0  0  0  0  0  0  0  0  0
    2.0858    4.0323   -2.1342 H   0  0  0  0  0  0  0  0  0  0  0  0
    0.6462    2.1179   -1.4902 H   0  0  0  0  0  0  0  0  0  0  0  0
    0.0789   -3.4068    0.8636 H   0  0  0  0  0  0  0  0  0  0  0  0
    0.5216   -2.9794    2.5288 H   0  0  0  0  0  0  0  0  0  0  0  0
    2.9755   -3.2763    2.3253 H   0  0  0  0  0  0  0  0  0  0  0  0
    5.1109   -2.5221    1.2763 H   0  0  0  0  0  0  0  0  0  0  0  0
    6.2528   -1.1745   -0.5280 H   0  0  0  0  0  0  0  0  0  0  0  0
    6.0828    0.3314   -2.4896 H   0  0  0  0  0  0  0  0  0  0  0  0
    3.8514    1.0253   -3.3407 H   0  0  0  0  0  0  0  0  0  0  0  0
    1.7724    0.2225   -2.2119 H   0  0  0  0  0  0  0  0  0  0  0  0
   -0.3846    0.4946   -1.8772 O   0  0  0  0  0  0  0  0  0  0  0  0
   -0.7404   -0.0064   -2.6359 H   0  0  0  0  0  0  0  0  0  0  0  0
   -1.0119   -2.4690   -1.7091 Br  0  0  0  0  0  0  0  0  0  0  0  0
  1  2  1  0  0  0  0
  2  7  1  0  0  0  0
  3 17  2  0  0  0  0
  3  1  9  0  0  0  0
  4 27  2  0  0  0  0
  4  1  9  0  0  0  0
  5 26  1  1  0  0  0
  5  6  1  0  0  0  0
  5 16  1  0  0  0  0
  5  1  9  0  0  0  0
  6 36  1  0  0  0  0
  7  8  2  0  0  0  0
  7  6  1  0  0  0  0
  8 38  1  0  0  0  0
  9 39  1  0  0  0  0
  9  8  1  0  0  0  0
 10  9  2  0  0  0  0
 11 40  1  0  0  0  0
 11 10  1  0  0  0  0
 12 11  1  0  0  0  0
 13 12  2  0  0  0  0
 13 14  1  0  0  0  0
 14 15  2  0  0  0  0
 15 10  1  0  0  0  0
 15  2  1  0  0  0  0
 16 45  1  0  0  0  0
 16 44  1  0  0  0  0
 17 16  1  0  0  0  0
 17 18  1  0  0  0  0
 18 46  1  0  0  0  0
 19 18  2  0  0  0  0
 19 47  1  0  0  0  0
 20 19  1  0  0  0  0
 21 20  2  0  0  0  0
 21 48  1  0  0  0  0
 22 21  1  0  0  0  0
 23 24  1  0  0  0  0
 23 22  2  0  0  0  0
 24 25  2  0  0  0  0
 25  3  1  0  0  0  0
 25 20  1  0  0  0  0
 26 53  1  0  0  0  0
 27 28  1  0  0  0  0
 27 26  1  0  0  0  0
 28 54  1  0  0  0  0
 29 55  1  0  0  0  0
 29 28  2  0  0  0  0
 30 29  1  0  0  0  0
 31 56  1  0  0  0  0
 31 30  2  0  0  0  0
 32 31  1  0  0  0  0
 33 32  2  0  0  0  0
 33 34  1  0  0  0  0
 34 35  2  0  0  0  0
 35 30  1  0  0  0  0
 35  4  1  0  0  0  0
 37  6  1  0  0  0  0
 41 12  1  0  0  0  0
 42 13  1  0  0  0  0
 43 14  1  0  0  0  0
 49 22  1  0  0  0  0
 50 23  1  0  0  0  0
 51 24  1  0  0  0  0
 52 26  1  0  0  0  0
 57 32  1  0  0  0  0
 58 33  1  0  0  0  0
 59 34  1  0  0  0  0
 60  1  1  0  0  0  0
 61 60  1  0  0  0  0
 62  1  1  0  0  0  0
M  RAD  1  11   2
M  CHG  1   1   2
M  END
$$$$
