
 OpenBabel02052520093D

 62 70  0  0  0  0  0  0  0  0999 V2000
   -0.4351   -0.6924   -0.7638 Fe  0  2  0  0  0  0  0  0  0  0  0  0
   -2.5845   -0.5394    0.0143 N   0  0  0  0  0  0  0  0  0  0  0  0
    0.3077    0.4932    0.9270 N   0  0  0  0  0  0  0  0  0  0  0  0
    1.8027   -1.3401   -0.5909 N   0  0  0  0  0  0  0  0  0  0  0  0
   -0.5567   -2.1787    0.6950 N   0  0  2  0  0  0  0  0  0  0  0  0
   -1.8941   -2.8112    0.5290 C   0  0  0  0  0  0  0  0  0  0  0  0
   -2.9764   -1.7601    0.3835 C   0  0  0  0  0  0  0  0  0  0  0  0
   -4.3277   -2.0996    0.5912 C   0  0  0  0  0  0  0  0  0  0  0  0
   -5.2955   -1.1316    0.3980 C   0  0  0  0  0  0  0  0  0  0  0  0
   -4.9101    0.1781    0.0313 C   0  0  0  0  0  0  0  0  0  0  0  0
   -5.8449    1.2295   -0.1718 C   0  0  0  0  0  3  0  0  0  0  0  0
   -5.4116    2.5065   -0.5099 C   0  0  0  0  0  0  0  0  0  0  0  0
   -4.0373    2.7720   -0.6473 C   0  0  0  0  0  0  0  0  0  0  0  0
   -3.0974    1.7650   -0.4604 C   0  0  0  0  0  0  0  0  0  0  0  0
   -3.5167    0.4454   -0.1388 C   0  0  0  0  0  0  0  0  0  0  0  0
   -0.4485   -1.5440    2.0380 C   0  0  0  0  0  0  0  0  0  0  0  0
    0.3357   -0.2592    2.0359 C   0  0  0  0  0  0  0  0  0  0  0  0
    0.9990    0.1204    3.2175 C   0  0  0  0  0  0  0  0  0  0  0  0
    1.6606    1.3269    3.2597 C   0  0  0  0  0  0  0  0  0  0  0  0
    1.6516    2.1602    2.1211 C   0  0  0  0  0  0  0  0  0  0  0  0
    2.3135    3.4170    2.1129 C   0  0  0  0  0  0  0  0  0  0  0  0
    2.2863    4.2231    0.9911 C   0  0  0  0  0  0  0  0  0  0  0  0
    1.5883    3.7929   -0.1546 C   0  0  0  0  0  0  0  0  0  0  0  0
    0.9353    2.5701   -0.1809 C   0  0  0  0  0  0  0  0  0  0  0  0
    0.9524    1.7159    0.9496 C   0  0  0  0  0  0  0  0  0  0  0  0
    0.5455   -3.1414    0.4227 C   0  0  0  0  0  0  0  0  0  0  0  0
    1.8622   -2.4367    0.1686 C   0  0  0  0  0  0  0  0  0  0  0  0
    3.0733   -2.9575    0.6617 C   0  0  0  0  0  0  0  0  0  0  0  0
    4.2563   -2.3058    0.3578 C   0  0  0  0  0  0  0  0  0  0  0  0
    4.2251   -1.1460   -0.4478 C   0  0  0  0  0  0  0  0  0  0  0  0
    5.3934   -0.4256   -0.8157 C   0  0  0  0  0  0  0  0  0  0  0  0
    5.3049    0.7002   -1.6269 C   0  0  0  0  0  0  0  0  0  0  0  0
    4.0538    1.1316   -2.1045 C   0  0  0  0  0  0  0  0  0  0  0  0
    2.8896    0.4546   -1.7593 C   0  0  0  0  0  0  0  0  0  0  0  0
    2.9532   -0.6924   -0.9196 C   0  0  0  0  0  0  0  0  0  0  0  0
   -2.1055   -3.4801    1.3732 H   0  0  0  0  0  0  0  0  0  0  0  0
   -1.8661   -3.4085   -0.3850 H   0  0  0  0  0  0  0  0  0  0  0  0
   -4.5956   -3.1088    0.8871 H   0  0  0  0  0  0  0  0  0  0  0  0
   -6.3471   -1.3658    0.5383 H   0  0  0  0  0  0  0  0  0  0  0  0
   -6.9055    1.0198   -0.0653 H   0  0  0  0  0  0  0  0  0  0  0  0
   -6.1355    3.3001   -0.6636 H   0  0  0  0  0  0  0  0  0  0  0  0
   -3.7057    3.7737   -0.9013 H   0  0  0  0  0  0  0  0  0  0  0  0
   -2.0385    1.9662   -0.5474 H   0  0  0  0  0  0  0  0  0  0  0  0
   -0.0250   -2.2584    2.7528 H   0  0  0  0  0  0  0  0  0  0  0  0
   -1.4593   -1.3080    2.3838 H   0  0  0  0  0  0  0  0  0  0  0  0
    0.9817   -0.5403    4.0777 H   0  0  0  0  0  0  0  0  0  0  0  0
    2.1868    1.6423    4.1565 H   0  0  0  0  0  0  0  0  0  0  0  0
    2.8368    3.7351    3.0102 H   0  0  0  0  0  0  0  0  0  0  0  0
    2.7897    5.1844    0.9949 H   0  0  0  0  0  0  0  0  0  0  0  0
    1.5510    4.4299   -1.0332 H   0  0  0  0  0  0  0  0  0  0  0  0
    0.3919    2.2628   -1.0611 H   0  0  0  0  0  0  0  0  0  0  0  0
    0.2750   -3.6797   -0.4899 H   0  0  0  0  0  0  0  0  0  0  0  0
    0.6308   -3.8654    1.2415 H   0  0  0  0  0  0  0  0  0  0  0  0
    3.0718   -3.8559    1.2702 H   0  0  0  0  0  0  0  0  0  0  0  0
    5.2053   -2.6792    0.7326 H   0  0  0  0  0  0  0  0  0  0  0  0
    6.3609   -0.7748   -0.4659 H   0  0  0  0  0  0  0  0  0  0  0  0
    6.2060    1.2369   -1.9056 H   0  0  0  0  0  0  0  0  0  0  0  0
    3.9957    1.9950   -2.7597 H   0  0  0  0  0  0  0  0  0  0  0  0
    1.9251    0.7561   -2.1472 H   0  0  0  0  0  0  0  0  0  0  0  0
   -0.8028   -2.0170   -1.8858 O   0  0  0  0  0  0  0  0  0  0  0  0
   -0.9149   -1.7128   -2.8049 H   0  0  0  0  0  0  0  0  0  0  0  0
   -0.6163    0.7669   -2.5032 Cl  0  0  0  0  0  0  0  0  0  0  0  0
  1  2  1  0  0  0  0
  2  7  1  0  0  0  0
  3 25  2  0  0  0  0
  3 17  1  0  0  0  0
  3  1  9  0  0  0  0
  4 27  2  0  0  0  0
  4  1  9  0  0  0  0
  5 26  1  6  0  0  0
  5 16  1  0  0  0  0
  5  1  9  0  0  0  0
  6  5  1  0  0  0  0
  6 36  1  0  0  0  0
  7  6  1  0  0  0  0
  7  8  2  0  0  0  0
  8 38  1  0  0  0  0
  9 39  1  0  0  0  0
  9  8  1  0  0  0  0
 10  9  2  0  0  0  0
 11 40  1  0  0  0  0
 11 10  1  0  0  0  0
 12 11  1  0  0  0  0
 13 12  2  0  0  0  0
 13 14  1  0  0  0  0
 14 15  2  0  0  0  0
 15  2  1  0  0  0  0
 15 10  1  0  0  0  0
 16 45  1  0  0  0  0
 16 44  1  0  0  0  0
 17 16  1  0  0  0  0
 17 18  2  0  0  0  0
 18 19  1  0  0  0  0
 18 46  1  0  0  0  0
 19 47  1  0  0  0  0
 20 19  2  0  0  0  0
 21 20  1  0  0  0  0
 21 48  1  0  0  0  0
 22 49  1  0  0  0  0
 22 21  2  0  0  0  0
 23 22  1  0  0  0  0
 24 23  2  0  0  0  0
 25 24  1  0  0  0  0
 25 20  1  0  0  0  0
 26 53  1  0  0  0  0
 27 26  1  0  0  0  0
 27 28  1  0  0  0  0
 28 54  1  0  0  0  0
 29 28  2  0  0  0  0
 29 55  1  0  0  0  0
 30 29  1  0  0  0  0
 31 56  1  0  0  0  0
 31 30  2  0  0  0  0
 32 31  1  0  0  0  0
 33 34  1  0  0  0  0
 33 32  2  0  0  0  0
 34 35  2  0  0  0  0
 35  4  1  0  0  0  0
 35 30  1  0  0  0  0
 37  6  1  0  0  0  0
 41 12  1  0  0  0  0
 42 13  1  0  0  0  0
 43 14  1  0  0  0  0
 50 23  1  0  0  0  0
 51 24  1  0  0  0  0
 52 26  1  0  0  0  0
 57 32  1  0  0  0  0
 58 33  1  0  0  0  0
 59 34  1  0  0  0  0
 60  1  1  0  0  0  0
 61 60  1  0  0  0  0
 62  1  1  0  0  0  0
M  RAD  1  11   2
M  CHG  1   1   2
M  END
$$$$
