
 OpenBabel02052520093D

 61 69  0  0  0  0  0  0  0  0999 V2000
   -0.0037   -0.0922   -0.0671 Fe  0  2  0  0  0  0  0  0  0  0  0  0
    0.2207    1.8890    0.5248 N   0  0  0  0  0  0  0  0  0  0  0  0
    1.8222   -1.1933    0.3345 N   0  0  0  0  0  0  0  0  0  0  0  0
   -1.9825   -0.8297    0.3325 N   0  0  0  0  0  0  0  0  0  0  0  0
    0.0565   -0.3220    2.0895 N   0  0  2  0  0  0  0  0  0  0  0  0
    0.1740   -0.1937   -1.8541 O   0  0  0  0  0  0  0  0  0  0  0  0
    0.9541    0.7602    2.5587 C   0  0  0  0  0  0  0  0  0  0  0  0
    0.6960    2.0300    1.7733 C   0  0  0  0  0  0  0  0  0  0  0  0
    0.9745    3.2843    2.3354 C   0  0  0  0  0  0  0  0  0  0  0  0
    0.7559    4.4200    1.5797 C   0  0  0  0  0  0  0  0  0  0  0  0
    0.2451    4.3152    0.2677 C   0  0  0  0  0  0  0  0  0  0  0  0
   -0.0167    5.4545   -0.5379 C   0  0  0  0  0  3  0  0  0  0  0  0
   -0.5287    5.3043   -1.8069 C   0  0  0  0  0  0  0  0  0  0  0  0
   -0.7942    4.0097   -2.3138 C   0  0  0  0  0  0  0  0  0  0  0  0
   -0.5514    2.8779   -1.5593 C   0  0  0  0  0  0  0  0  0  0  0  0
   -0.0251    3.0061   -0.2547 C   0  0  0  0  0  0  0  0  0  0  0  0
    0.5761   -1.6812    2.3525 C   0  0  0  0  0  0  0  0  0  0  0  0
    1.7173   -1.9861    1.4070 C   0  0  0  0  0  0  0  0  0  0  0  0
    2.6058   -3.0433    1.6654 C   0  0  0  0  0  0  0  0  0  0  0  0
    3.6319   -3.2790    0.7738 C   0  0  0  0  0  0  0  0  0  0  0  0
    3.8202   -2.4217   -0.3357 C   0  0  0  0  0  0  0  0  0  0  0  0
    4.9049   -2.5746   -1.2384 C   0  0  0  0  0  0  0  0  0  0  0  0
    5.0908   -1.6730   -2.2631 C   0  0  0  0  0  0  0  0  0  0  0  0
    4.2086   -0.5765   -2.4083 C   0  0  0  0  0  0  0  0  0  0  0  0
    3.1327   -0.4053   -1.5569 C   0  0  0  0  0  0  0  0  0  0  0  0
    2.8985   -1.3393   -0.5211 C   0  0  0  0  0  0  0  0  0  0  0  0
   -1.3278   -0.1411    2.5747 C   0  0  0  0  0  0  0  0  0  0  0  0
   -2.3126   -0.7935    1.6347 C   0  0  0  0  0  0  0  0  0  0  0  0
   -3.5299   -1.2753    2.1368 C   0  0  0  0  0  0  0  0  0  0  0  0
   -4.4523   -1.8054    1.2587 C   0  0  0  0  0  0  0  0  0  0  0  0
   -4.1645   -1.8513   -0.1208 C   0  0  0  0  0  0  0  0  0  0  0  0
   -5.0918   -2.3802   -1.0570 C   0  0  0  0  0  0  0  0  0  0  0  0
   -4.7912   -2.4021   -2.3992 C   0  0  0  0  0  0  0  0  0  0  0  0
   -3.5506   -1.8910   -2.8463 C   0  0  0  0  0  0  0  0  0  0  0  0
   -2.6216   -1.3762   -1.9626 C   0  0  0  0  0  0  0  0  0  0  0  0
   -2.8984   -1.3449   -0.5783 C   0  0  0  0  0  0  0  0  0  0  0  0
    1.9882    0.4428    2.3933 H   0  0  0  0  0  0  0  0  0  0  0  0
    0.8302    0.9349    3.6348 H   0  0  0  0  0  0  0  0  0  0  0  0
    1.3524    3.3479    3.3503 H   0  0  0  0  0  0  0  0  0  0  0  0
    0.9635    5.4028    1.9942 H   0  0  0  0  0  0  0  0  0  0  0  0
    0.1921    6.4407   -0.1340 H   0  0  0  0  0  0  0  0  0  0  0  0
   -0.7304    6.1750   -2.4222 H   0  0  0  0  0  0  0  0  0  0  0  0
   -1.1965    3.9037   -3.3167 H   0  0  0  0  0  0  0  0  0  0  0  0
   -0.7419    1.8941   -1.9715 H   0  0  0  0  0  0  0  0  0  0  0  0
   -0.2439   -2.3896    2.1878 H   0  0  0  0  0  0  0  0  0  0  0  0
    0.8981   -1.7919    3.3966 H   0  0  0  0  0  0  0  0  0  0  0  0
    2.4726   -3.6574    2.5499 H   0  0  0  0  0  0  0  0  0  0  0  0
    4.3215   -4.1033    0.9340 H   0  0  0  0  0  0  0  0  0  0  0  0
    5.5914   -3.4043   -1.0968 H   0  0  0  0  0  0  0  0  0  0  0  0
    5.9241   -1.7879   -2.9485 H   0  0  0  0  0  0  0  0  0  0  0  0
    4.3875    0.1506   -3.1947 H   0  0  0  0  0  0  0  0  0  0  0  0
    2.4812    0.4552   -1.6579 H   0  0  0  0  0  0  0  0  0  0  0  0
   -1.5340    0.9347    2.6048 H   0  0  0  0  0  0  0  0  0  0  0  0
   -1.4405   -0.5232    3.5969 H   0  0  0  0  0  0  0  0  0  0  0  0
   -3.7299   -1.2249    3.2018 H   0  0  0  0  0  0  0  0  0  0  0  0
   -5.4017   -2.1903    1.6210 H   0  0  0  0  0  0  0  0  0  0  0  0
   -6.0412   -2.7607   -0.6917 H   0  0  0  0  0  0  0  0  0  0  0  0
   -5.5011   -2.8037   -3.1149 H   0  0  0  0  0  0  0  0  0  0  0  0
   -3.3233   -1.9006   -3.9081 H   0  0  0  0  0  0  0  0  0  0  0  0
   -1.6824   -0.9766   -2.3198 H   0  0  0  0  0  0  0  0  0  0  0  0
    0.7168   -0.7588   -2.4297 H   0  0  0  0  0  0  0  0  0  0  0  0
  1  2  1  0  0  0  0
  2  8  1  0  0  0  0
  3 18  2  0  0  0  0
  3  1  9  0  0  0  0
  4 28  2  0  0  0  0
  4  1  9  0  0  0  0
  5 17  1  1  0  0  0
  5  7  1  0  0  0  0
  5 27  1  0  0  0  0
  5  1  9  0  0  0  0
  6  1  1  0  0  0  0
  7 38  1  0  0  0  0
  8  9  2  0  0  0  0
  8  7  1  0  0  0  0
  9 39  1  0  0  0  0
 10 40  1  0  0  0  0
 10  9  1  0  0  0  0
 11 10  2  0  0  0  0
 12 41  1  0  0  0  0
 12 11  1  0  0  0  0
 13 12  1  0  0  0  0
 14 13  2  0  0  0  0
 14 15  1  0  0  0  0
 15 16  2  0  0  0  0
 16 11  1  0  0  0  0
 16  2  1  0  0  0  0
 17 46  1  0  0  0  0
 18 19  1  0  0  0  0
 18 17  1  0  0  0  0
 19 47  1  0  0  0  0
 20 48  1  0  0  0  0
 20 19  2  0  0  0  0
 21 20  1  0  0  0  0
 22 49  1  0  0  0  0
 22 21  2  0  0  0  0
 23 22  1  0  0  0  0
 24 23  2  0  0  0  0
 24 25  1  0  0  0  0
 25 26  2  0  0  0  0
 26 21  1  0  0  0  0
 26  3  1  0  0  0  0
 27 53  1  0  0  0  0
 27 54  1  0  0  0  0
 28 29  1  0  0  0  0
 28 27  1  0  0  0  0
 29 55  1  0  0  0  0
 30 56  1  0  0  0  0
 30 29  2  0  0  0  0
 31 30  1  0  0  0  0
 32 57  1  0  0  0  0
 32 31  2  0  0  0  0
 33 32  1  0  0  0  0
 34 33  2  0  0  0  0
 34 35  1  0  0  0  0
 35 36  2  0  0  0  0
 36 31  1  0  0  0  0
 36  4  1  0  0  0  0
 37  7  1  0  0  0  0
 42 13  1  0  0  0  0
 43 14  1  0  0  0  0
 44 15  1  0  0  0  0
 45 17  1  0  0  0  0
 50 23  1  0  0  0  0
 51 24  1  0  0  0  0
 52 25  1  0  0  0  0
 58 33  1  0  0  0  0
 59 34  1  0  0  0  0
 60 35  1  0  0  0  0
 61  6  1  0  0  0  0
M  RAD  1  12   2
M  CHG  1   1   2
M  END
$$$$
