
 OpenBabel02052520093D

 62 70  0  0  0  0  0  0  0  0999 V2000
   -0.2711   -0.8208   -0.4087 Fe  0  2  0  0  0  0  0  0  0  0  0  0
   -2.2223   -0.7634    0.2118 N   0  0  0  0  0  0  0  0  0  0  0  0
    0.4150    0.1516    1.3463 N   0  0  0  0  0  0  0  0  0  0  0  0
    1.7007   -1.2217   -0.6605 N   0  0  0  0  0  0  0  0  0  0  0  0
   -0.3240   -2.4478    0.7156 N   0  0  2  0  0  0  0  0  0  0  0  0
   -1.6497   -3.0870    0.4621 C   0  0  0  0  0  0  0  0  0  0  0  0
   -2.6943   -2.0048    0.3905 C   0  0  0  0  0  0  0  0  0  0  0  0
   -4.0702   -2.2896    0.4381 C   0  0  0  0  0  0  0  0  0  0  0  0
   -4.9708   -1.2623    0.2405 C   0  0  0  0  0  0  0  0  0  0  0  0
   -4.4956    0.0611    0.0769 C   0  0  0  0  0  0  0  0  0  0  0  0
   -5.3574    1.1741   -0.1433 C   0  0  0  0  0  0  0  0  0  0  0  0
   -4.8497    2.4625   -0.2846 C   0  0  0  0  0  0  0  0  0  0  0  0
   -3.4752    2.6901   -0.1557 C   0  0  0  0  0  0  0  0  0  0  0  0
   -2.5878    1.6223    0.0639 C   0  0  0  0  0  0  0  0  0  0  0  0
   -3.0917    0.2803    0.1258 C   0  0  0  0  0  0  0  0  0  0  0  0
   -0.2109   -2.0530    2.1515 C   0  0  0  0  0  0  0  0  0  0  0  0
    0.4850   -0.7327    2.3447 C   0  0  0  0  0  0  0  0  0  0  0  0
    1.1008   -0.4718    3.5830 C   0  0  0  0  0  0  0  0  0  0  0  0
    1.6594    0.7660    3.8018 C   0  0  0  0  0  0  0  0  0  0  0  0
    1.6079    1.7430    2.7834 C   0  0  0  0  0  0  0  0  0  0  0  0
    2.1669    3.0359    2.9608 C   0  0  0  0  0  0  0  0  0  0  0  0
    2.1061    3.9701    1.9520 C   0  0  0  0  0  0  0  0  0  0  0  0
    1.4846    3.6348    0.7273 C   0  0  0  0  0  0  0  0  0  0  0  0
    0.9372    2.3839    0.5225 C   0  0  0  0  0  0  0  0  0  0  0  0
    0.9770    1.4041    1.5385 C   0  0  0  0  0  0  0  0  0  0  0  0
    0.8182   -3.2824    0.2478 C   0  0  0  0  0  0  0  0  0  0  0  0
    1.9905   -2.4073   -0.1068 C   0  0  0  0  0  0  0  0  0  0  0  0
    3.3033   -2.8756    0.0638 C   0  0  0  0  0  0  0  0  0  0  0  0
    4.3525   -2.0937   -0.3682 C   0  0  0  0  0  0  0  0  0  0  0  0
    4.0915   -0.8628   -1.0067 C   0  0  0  0  0  0  0  0  0  0  0  0
    5.1354   -0.0455   -1.5163 C   0  0  0  0  0  0  0  0  0  0  0  0
    4.8468    1.1232   -2.1819 C   0  0  0  0  0  0  0  0  0  0  0  0
    3.4983    1.5096   -2.3679 C   0  0  0  0  0  0  0  0  0  0  0  0
    2.4625    0.7496   -1.8664 C   0  0  0  0  0  0  0  0  0  0  0  0
    2.7253   -0.4453   -1.1632 C   0  0  0  0  0  0  0  0  0  0  0  0
   -1.8809   -3.8278    1.2370 H   0  0  0  0  0  0  0  0  0  0  0  0
   -1.6085   -3.5898   -0.5055 H   0  0  0  0  0  0  0  0  0  0  0  0
   -4.4043   -3.3108    0.5887 H   0  0  0  0  0  0  0  0  0  0  0  0
   -6.0389   -1.4588    0.2179 H   0  0  0  0  0  0  0  0  0  0  0  0
   -6.4280    1.0002   -0.2068 H   0  0  0  0  0  0  0  0  0  0  0  0
   -5.5247    3.2942   -0.4565 H   0  0  0  0  0  0  0  0  0  0  0  0
   -3.0824    3.7008   -0.1973 H   0  0  0  0  0  0  0  0  0  0  0  0
   -1.5864    1.8191    0.4244 H   0  0  0  0  0  0  0  0  0  0  0  0
    0.2827   -2.8490    2.7184 H   0  0  0  0  0  0  0  0  0  0  0  0
   -1.2240   -1.9560    2.5552 H   0  0  0  0  0  0  0  0  0  0  0  0
    1.1242   -1.2436    4.3452 H   0  0  0  0  0  0  0  0  0  0  0  0
    2.1425    0.9987    4.7467 H   0  0  0  0  0  0  0  0  0  0  0  0
    2.6409    3.2720    3.9092 H   0  0  0  0  0  0  0  0  0  0  0  0
    2.5321    4.9582    2.0915 H   0  0  0  0  0  0  0  0  0  0  0  0
    1.4403    4.3706   -0.0701 H   0  0  0  0  0  0  0  0  0  0  0  0
    0.4789    2.1459   -0.4237 H   0  0  0  0  0  0  0  0  0  0  0  0
    0.4962   -3.7855   -0.6674 H   0  0  0  0  0  0  0  0  0  0  0  0
    1.0783   -4.0413    0.9928 H   0  0  0  0  0  0  0  0  0  0  0  0
    3.4722   -3.8408    0.5290 H   0  0  0  0  0  0  0  0  0  0  0  0
    5.3795   -2.4226   -0.2362 H   0  0  0  0  0  0  0  0  0  0  0  0
    6.1628   -0.3725   -1.3854 H   0  0  0  0  0  0  0  0  0  0  0  0
    5.6459    1.7396   -2.5807 H   0  0  0  0  0  0  0  0  0  0  0  0
    3.2732    2.4154   -2.9228 H   0  0  0  0  0  0  0  0  0  0  0  0
    1.4394    1.0458   -2.0367 H   0  0  0  0  0  0  0  0  0  0  0  0
   -0.6952   -1.9028   -1.7579 O   0  0  0  0  0  0  0  0  0  0  0  0
   -0.7044   -1.4315   -2.6089 H   0  0  0  0  0  0  0  0  0  0  0  0
   -1.1217    1.1921   -2.1870 Br  0  0  0  0  0  0  0  0  0  0  0  0
  2  7  1  0  0  0  0
  2  1  9  0  0  0  0
  3 25  2  0  0  0  0
  3 17  1  0  0  0  0
  3  1  9  0  0  0  0
  4 27  1  0  0  0  0
  4  1  9  0  0  0  0
  5 26  1  6  0  0  0
  5 16  1  0  0  0  0
  5  1  9  0  0  0  0
  6  5  1  0  0  0  0
  6 36  1  0  0  0  0
  7  8  2  0  0  0  0
  7  6  1  0  0  0  0
  8 38  1  0  0  0  0
  9  8  1  0  0  0  0
 10 15  1  0  0  0  0
 10  9  2  0  0  0  0
 11 10  1  0  0  0  0
 12 13  1  0  0  0  0
 12 11  2  0  0  0  0
 13 14  2  0  0  0  0
 14 15  1  0  0  0  0
 14 43  1  0  0  0  0
 15  2  2  0  0  0  0
 16 17  1  0  0  0  0
 16 45  1  0  0  0  0
 16 44  1  0  0  0  0
 17 18  2  0  0  0  0
 18 19  1  0  0  0  0
 18 46  1  0  0  0  0
 19 47  1  0  0  0  0
 20 21  1  0  0  0  0
 20 19  2  0  0  0  0
 21 48  1  0  0  0  0
 22 49  1  0  0  0  0
 22 21  2  0  0  0  0
 23 22  1  0  0  0  0
 24 23  2  0  0  0  0
 24 25  1  0  0  0  0
 25 20  1  0  0  0  0
 26 53  1  0  0  0  0
 27 28  2  0  0  0  0
 27 26  1  0  0  0  0
 28 54  1  0  0  0  0
 29 55  1  0  0  0  0
 29 28  1  0  0  0  0
 30 29  2  0  0  0  0
 31 56  1  0  0  0  0
 31 30  1  0  0  0  0
 32 31  2  0  0  0  0
 33 32  1  0  0  0  0
 33 34  2  0  0  0  0
 34 35  1  0  0  0  0
 35 30  1  0  0  0  0
 35  4  2  0  0  0  0
 37  6  1  0  0  0  0
 39  9  1  0  0  0  0
 40 11  1  0  0  0  0
 41 12  1  0  0  0  0
 42 13  1  0  0  0  0
 50 23  1  0  0  0  0
 51 24  1  0  0  0  0
 52 26  1  0  0  0  0
 57 32  1  0  0  0  0
 58 33  1  0  0  0  0
 59 34  1  0  0  0  0
 60  1  1  0  0  0  0
 61 60  1  0  0  0  0
 62  1  1  0  0  0  0
M  CHG  1   1   2
M  END
$$$$
