
 OpenBabel02072512503D

 64 71  0  0  0  0  0  0  0  0999 V2000
    0.5244   -0.5828    0.8842 Fe  0  2  0  0  0  0  0  0  0  0  0  0
    2.5714   -0.5290   -0.0645 N   0  0  0  0  0  0  0  0  0  0  0  0
   -0.4208    0.3178   -1.1759 N   0  0  0  0  0  0  0  0  0  0  0  0
   -1.6651   -1.2570    0.7587 N   0  0  0  0  0  0  0  0  0  0  0  0
    0.5828   -2.2811   -0.5573 N   0  0  2  0  0  0  0  0  0  0  0  0
    1.9347   -2.8546   -0.3549 C   0  0  0  0  0  0  0  0  0  0  0  0
    2.9756   -1.7585   -0.3973 C   0  0  0  0  0  0  0  0  0  0  0  0
    4.3059   -2.0589   -0.7485 C   0  0  0  0  0  0  0  0  0  0  0  0
    5.2447   -1.0482   -0.7426 C   0  0  0  0  0  0  0  0  0  0  0  0
    4.8481    0.2709   -0.4258 C   0  0  0  0  0  0  0  0  0  0  0  0
    5.7571    1.3623   -0.4333 C   0  0  0  0  0  0  0  0  0  0  0  0
    5.3216    2.6448   -0.1442 C   0  0  0  0  0  0  0  0  0  0  0  0
    3.9630    2.8755    0.1529 C   0  0  0  0  0  0  0  0  0  0  0  0
    3.0523    1.8316    0.1750 C   0  0  0  0  0  0  0  0  0  0  0  0
    3.4742    0.5046   -0.0988 C   0  0  0  0  0  0  0  0  0  0  0  0
    0.3942   -1.8437   -1.9599 C   0  0  0  0  0  0  0  0  0  0  0  0
   -0.5056   -0.6352   -2.1096 C   0  0  0  0  0  0  0  0  0  0  0  0
   -1.3413   -0.5320   -3.2403 C   0  0  0  0  0  0  0  0  0  0  0  0
   -2.1319    0.5886   -3.3958 C   0  0  0  0  0  0  0  0  0  0  0  0
   -2.0753    1.6134   -2.4245 C   0  0  0  0  0  0  0  0  0  0  0  0
   -2.8550    2.7959   -2.5149 C   0  0  0  0  0  0  0  0  0  0  0  0
   -2.7650    3.7842   -1.5412 C   0  0  0  0  0  0  0  0  0  0  0  0
   -1.8872    3.6200   -0.4570 C   0  0  0  0  0  0  0  0  0  0  0  0
   -1.1033    2.4753   -0.3403 C   0  0  0  0  0  0  0  0  0  0  0  0
   -1.1851    1.4417   -1.3172 C   0  0  0  0  0  0  0  0  0  0  0  0
   -0.4860   -3.1959   -0.0922 C   0  0  0  0  0  0  0  0  0  0  0  0
   -1.7768   -2.4501    0.1639 C   0  0  0  0  0  0  0  0  0  0  0  0
   -3.0207   -3.0152   -0.1759 C   0  0  0  0  0  0  0  0  0  0  0  0
   -4.1780   -2.3083    0.0904 C   0  0  0  0  0  0  0  0  0  0  0  0
   -4.0912   -1.0424    0.7112 C   0  0  0  0  0  0  0  0  0  0  0  0
   -5.2346   -0.2555    1.0158 C   0  0  0  0  0  0  0  0  0  0  0  0
   -5.1023    0.9776    1.6418 C   0  0  0  0  0  0  0  0  0  0  0  0
   -3.8270    1.4525    1.9952 C   0  0  0  0  0  0  0  0  0  0  0  0
   -2.6859    0.7100    1.7103 C   0  0  0  0  0  0  0  0  0  0  0  0
   -2.7936   -0.5473    1.0520 C   0  0  0  0  0  0  0  0  0  0  0  0
    2.1565   -3.6327   -1.0974 H   0  0  0  0  0  0  0  0  0  0  0  0
    1.9544   -3.3070    0.6403 H   0  0  0  0  0  0  0  0  0  0  0  0
    4.5768   -3.0764   -1.0104 H   0  0  0  0  0  0  0  0  0  0  0  0
    6.2815   -1.2531   -0.9947 H   0  0  0  0  0  0  0  0  0  0  0  0
    6.8003    1.1744   -0.6707 H   0  0  0  0  0  0  0  0  0  0  0  0
    6.0236    3.4722   -0.1504 H   0  0  0  0  0  0  0  0  0  0  0  0
    3.6262    3.8848    0.3683 H   0  0  0  0  0  0  0  0  0  0  0  0
    2.0099    2.0054    0.4062 H   0  0  0  0  0  0  0  0  0  0  0  0
    0.0242   -2.6745   -2.5738 H   0  0  0  0  0  0  0  0  0  0  0  0
    1.3735   -1.5645   -2.3619 H   0  0  0  0  0  0  0  0  0  0  0  0
   -1.3599   -1.3329   -3.9721 H   0  0  0  0  0  0  0  0  0  0  0  0
   -2.7942    0.6881   -4.2515 H   0  0  0  0  0  0  0  0  0  0  0  0
   -3.5183    2.9241   -3.3660 H   0  0  0  0  0  0  0  0  0  0  0  0
   -3.3625    4.6860   -1.6271 H   0  0  0  0  0  0  0  0  0  0  0  0
   -1.8055    4.4004    0.2935 H   0  0  0  0  0  0  0  0  0  0  0  0
   -0.4093    2.3558    0.4829 H   0  0  0  0  0  0  0  0  0  0  0  0
   -0.1553   -3.6148    0.8630 H   0  0  0  0  0  0  0  0  0  0  0  0
   -0.6424   -4.0203   -0.7997 H   0  0  0  0  0  0  0  0  0  0  0  0
   -3.0581   -3.9918   -0.6469 H   0  0  0  0  0  0  0  0  0  0  0  0
   -5.1499   -2.7157   -0.1744 H   0  0  0  0  0  0  0  0  0  0  0  0
   -6.2190   -0.6394    0.7629 H   0  0  0  0  0  0  0  0  0  0  0  0
   -5.9850    1.5638    1.8756 H   0  0  0  0  0  0  0  0  0  0  0  0
   -3.7299    2.4031    2.5104 H   0  0  0  0  0  0  0  0  0  0  0  0
   -1.7033    1.0476    2.0153 H   0  0  0  0  0  0  0  0  0  0  0  0
    0.9586   -1.8236    2.1561 O   0  0  0  0  0  1  0  0  0  0  0  0
    1.0833   -1.6047    3.0946 H   0  0  0  0  0  0  0  0  0  0  0  0
    0.5370    1.0350    1.9194 N   0  0  0  0  0  0  0  0  0  0  0  0
    1.0541    1.2490    3.0084 N   0  3  0  0  0  0  0  0  0  0  0  0
    1.5301    1.4863    4.0226 N   0  5  0  0  0  0  0  0  0  0  0  0
  1 62  1  0  0  0  0
  2  1  9  0  0  0  0
  3  1  9  0  0  0  0
  4 35  1  0  0  0  0
  4  1  9  0  0  0  0
  5 16  1  6  0  0  0
  5  6  1  0  0  0  0
  5 26  1  0  0  0  0
  5  1  9  0  0  0  0
  6 37  1  0  0  0  0
  7  6  1  0  0  0  0
  7  2  2  0  0  0  0
  8  9  2  0  0  0  0
  8  7  1  0  0  0  0
  9 10  1  0  0  0  0
 10 15  2  0  0  0  0
 11 10  1  0  0  0  0
 11 12  2  0  0  0  0
 12 13  1  0  0  0  0
 13 14  2  0  0  0  0
 13 42  1  0  0  0  0
 14 43  1  0  0  0  0
 15  2  1  0  0  0  0
 15 14  1  0  0  0  0
 17 16  1  0  0  0  0
 17  3  2  0  0  0  0
 18 17  1  0  0  0  0
 19 18  2  0  0  0  0
 19 20  1  0  0  0  0
 20 25  2  0  0  0  0
 21 20  1  0  0  0  0
 21 22  2  0  0  0  0
 22 23  1  0  0  0  0
 23 24  2  0  0  0  0
 23 50  1  0  0  0  0
 24 51  1  0  0  0  0
 25  3  1  0  0  0  0
 25 24  1  0  0  0  0
 26 27  1  0  0  0  0
 26 52  1  0  0  0  0
 27  4  2  0  0  0  0
 28 29  2  0  0  0  0
 28 27  1  0  0  0  0
 29 30  1  0  0  0  0
 30 31  1  0  0  0  0
 30 35  2  0  0  0  0
 31 32  2  0  0  0  0
 32 57  1  0  0  0  0
 32 33  1  0  0  0  0
 33 58  1  0  0  0  0
 34 33  2  0  0  0  0
 34 59  1  0  0  0  0
 35 34  1  0  0  0  0
 36  6  1  0  0  0  0
 38  8  1  0  0  0  0
 39  9  1  0  0  0  0
 40 11  1  0  0  0  0
 41 12  1  0  0  0  0
 44 16  1  0  0  0  0
 45 16  1  0  0  0  0
 46 18  1  0  0  0  0
 47 19  1  0  0  0  0
 48 21  1  0  0  0  0
 49 22  1  0  0  0  0
 53 26  1  0  0  0  0
 54 28  1  0  0  0  0
 55 29  1  0  0  0  0
 56 31  1  0  0  0  0
 60 61  1  0  0  0  0
 62 63  2  0  0  0  0
 63 64  2  0  0  0  0
M  RAD  1  60   2
M  CHG  3   1   2  63   1  64  -1
M  END
$$$$
