
 OpenBabel02052520093D

 64 72  0  0  0  0  0  0  0  0999 V2000
   -0.3513   -0.5578   -0.0322 Fe  0  2  0  0  0  0  0  0  0  0  0  0
   -2.3307   -0.1310    0.2588 N   0  0  0  0  0  0  0  0  0  0  0  0
    0.3529    1.2050    0.7733 N   0  0  0  0  0  0  0  0  0  0  0  0
    1.6064   -1.1929    0.2487 N   0  0  0  0  0  0  0  0  0  0  0  0
   -0.5807   -1.1438    1.9033 N   0  0  2  0  0  0  0  0  0  0  0  0
   -1.9310   -1.7683    1.9865 C   0  0  0  0  0  0  0  0  0  0  0  0
   -2.8872   -0.9218    1.1863 C   0  0  0  0  0  0  0  0  0  0  0  0
   -4.2683   -0.9670    1.4333 C   0  0  0  0  0  0  0  0  0  0  0  0
   -5.1021   -0.1664    0.6832 C   0  0  0  0  0  0  0  0  0  0  0  0
   -4.5538    0.7294   -0.2607 C   0  0  0  0  0  0  0  0  0  0  0  0
   -5.3707    1.6250   -1.0001 C   0  0  0  0  0  0  0  0  0  0  0  0
   -4.8053    2.5349   -1.8640 C   0  0  0  0  0  0  0  0  0  0  0  0
   -3.3990    2.5851   -2.0068 C   0  0  0  0  0  0  0  0  0  0  0  0
   -2.5733    1.7187   -1.3181 C   0  0  0  0  0  0  0  0  0  0  0  0
   -3.1277    0.7555   -0.4432 C   0  0  0  0  0  0  0  0  0  0  0  0
   -0.5250    0.0834    2.7457 C   0  0  0  0  0  0  0  0  0  0  0  0
    0.2897    1.1769    2.1110 C   0  0  0  0  0  0  0  0  0  0  0  0
    0.8757    2.1439    2.9464 C   0  0  0  0  0  0  0  0  0  0  0  0
    1.5590    3.1928    2.3766 C   0  0  0  0  0  0  0  0  0  0  0  0
    1.6525    3.2748    0.9719 C   0  0  0  0  0  0  0  0  0  0  0  0
    2.3485    4.3433    0.3458 C   0  0  0  0  0  0  0  0  0  0  0  0
    2.4331    4.4200   -1.0279 C   0  0  0  0  0  0  0  0  0  0  0  0
    1.8164    3.4249   -1.8139 C   0  0  0  0  0  0  0  0  0  0  0  0
    1.1328    2.3676   -1.2384 C   0  0  0  0  0  0  0  0  0  0  0  0
    1.0311    2.2555    0.1706 C   0  0  0  0  0  0  0  0  0  0  0  0
    0.5141   -2.1011    2.2071 C   0  0  0  0  0  0  0  0  0  0  0  0
    1.7709   -1.7284    1.4665 C   0  0  0  0  0  0  0  0  0  0  0  0
    3.0285   -2.0154    2.0217 C   0  0  0  0  0  0  0  0  0  0  0  0
    4.1608   -1.7526    1.2805 C   0  0  0  0  0  0  0  0  0  0  0  0
    4.0333   -1.2352   -0.0252 C   0  0  0  0  0  0  0  0  0  0  0  0
    5.1691   -0.9851   -0.8418 C   0  0  0  0  0  0  0  0  0  0  0  0
    5.0188   -0.5190   -2.1310 C   0  0  0  0  0  0  0  0  0  0  0  0
    3.7234   -0.2958   -2.6455 C   0  0  0  0  0  0  0  0  0  0  0  0
    2.5948   -0.5116   -1.8745 C   0  0  0  0  0  0  0  0  0  0  0  0
    2.7181   -0.9706   -0.5404 C   0  0  0  0  0  0  0  0  0  0  0  0
   -2.2576   -1.8605    3.0297 H   0  0  0  0  0  0  0  0  0  0  0  0
   -1.8735   -2.7738    1.5652 H   0  0  0  0  0  0  0  0  0  0  0  0
   -4.6554   -1.6269    2.2026 H   0  0  0  0  0  0  0  0  0  0  0  0
   -6.1777   -0.1933    0.8336 H   0  0  0  0  0  0  0  0  0  0  0  0
   -6.4468    1.5860   -0.8583 H   0  0  0  0  0  0  0  0  0  0  0  0
   -5.4312    3.2220   -2.4238 H   0  0  0  0  0  0  0  0  0  0  0  0
   -2.9574    3.3239   -2.6688 H   0  0  0  0  0  0  0  0  0  0  0  0
   -1.5035    1.7681   -1.4371 H   0  0  0  0  0  0  0  0  0  0  0  0
   -0.1540   -0.1589    3.7474 H   0  0  0  0  0  0  0  0  0  0  0  0
   -1.5468    0.4574    2.8650 H   0  0  0  0  0  0  0  0  0  0  0  0
    0.7804    2.0505    4.0230 H   0  0  0  0  0  0  0  0  0  0  0  0
    2.0272    3.9541    2.9942 H   0  0  0  0  0  0  0  0  0  0  0  0
    2.8078    5.1013    0.9737 H   0  0  0  0  0  0  0  0  0  0  0  0
    2.9626    5.2405   -1.5011 H   0  0  0  0  0  0  0  0  0  0  0  0
    1.8729    3.4878   -2.8966 H   0  0  0  0  0  0  0  0  0  0  0  0
    0.6582    1.6238   -1.8574 H   0  0  0  0  0  0  0  0  0  0  0  0
    0.1988   -3.0882    1.8552 H   0  0  0  0  0  0  0  0  0  0  0  0
    0.6838   -2.1755    3.2868 H   0  0  0  0  0  0  0  0  0  0  0  0
    3.0919   -2.4362    3.0194 H   0  0  0  0  0  0  0  0  0  0  0  0
    5.1485   -1.9522    1.6867 H   0  0  0  0  0  0  0  0  0  0  0  0
    6.1566   -1.1795   -0.4331 H   0  0  0  0  0  0  0  0  0  0  0  0
    5.8895   -0.3389   -2.7530 H   0  0  0  0  0  0  0  0  0  0  0  0
    3.6070    0.0441   -3.6701 H   0  0  0  0  0  0  0  0  0  0  0  0
    1.6032   -0.3611   -2.2759 H   0  0  0  0  0  0  0  0  0  0  0  0
   -0.3032   -0.0498   -1.7427 O   0  0  0  0  0  0  0  0  0  0  0  0
   -0.9146   -0.6007   -2.2638 H   0  0  0  0  0  0  0  0  0  0  0  0
   -0.8176   -2.3623   -0.6389 N   0  0  0  0  0  0  0  0  0  0  0  0
   -0.9410   -3.3822   -1.2266 C   0  0  0  0  0  0  0  0  0  0  0  0
   -1.1213   -4.7940   -2.0082 S   0  0  0  0  0  0  0  0  0  0  0  0
  2  7  1  0  0  0  0
  2  1  9  0  0  0  0
  3 17  1  0  0  0  0
  3  1  9  0  0  0  0
  4 27  1  0  0  0  0
  4  1  9  0  0  0  0
  5  6  1  1  0  0  0
  5 26  1  0  0  0  0
  5 16  1  0  0  0  0
  5  1  9  0  0  0  0
  6 36  1  0  0  0  0
  7  8  2  0  0  0  0
  7  6  1  0  0  0  0
  8 38  1  0  0  0  0
  9 39  1  0  0  0  0
  9  8  1  0  0  0  0
 10  9  2  0  0  0  0
 11 40  1  0  0  0  0
 11 10  1  0  0  0  0
 12 11  2  0  0  0  0
 13 12  1  0  0  0  0
 13 14  2  0  0  0  0
 14 15  1  0  0  0  0
 15 10  1  0  0  0  0
 15  2  2  0  0  0  0
 16 45  1  0  0  0  0
 16 44  1  0  0  0  0
 17 16  1  0  0  0  0
 17 18  2  0  0  0  0
 18 46  1  0  0  0  0
 19 18  1  0  0  0  0
 19 47  1  0  0  0  0
 20 19  2  0  0  0  0
 21 20  1  0  0  0  0
 21 48  1  0  0  0  0
 22 21  2  0  0  0  0
 23 24  2  0  0  0  0
 23 22  1  0  0  0  0
 24 25  1  0  0  0  0
 25  3  2  0  0  0  0
 25 20  1  0  0  0  0
 26 53  1  0  0  0  0
 27 28  2  0  0  0  0
 27 26  1  0  0  0  0
 28 54  1  0  0  0  0
 29 55  1  0  0  0  0
 29 28  1  0  0  0  0
 30 29  2  0  0  0  0
 31 56  1  0  0  0  0
 31 30  1  0  0  0  0
 32 31  2  0  0  0  0
 33 32  1  0  0  0  0
 33 34  2  0  0  0  0
 34 35  1  0  0  0  0
 35 30  1  0  0  0  0
 35  4  2  0  0  0  0
 37  6  1  0  0  0  0
 41 12  1  0  0  0  0
 42 13  1  0  0  0  0
 43 14  1  0  0  0  0
 49 22  1  0  0  0  0
 50 23  1  0  0  0  0
 51 24  1  0  0  0  0
 52 26  1  0  0  0  0
 57 32  1  0  0  0  0
 58 33  1  0  0  0  0
 59 34  1  0  0  0  0
 60  1  1  0  0  0  0
 61 60  1  0  0  0  0
 62  1  1  0  0  0  0
 63 62  2  0  0  0  0
 64 63  2  0  0  0  0
M  CHG  1   1   2
M  END
$$$$
