
 OpenBabel02052520093D

 62 70  0  0  0  0  0  0  0  0999 V2000
   -0.3168   -0.8079   -0.5427 Fe  0  2  0  0  0  0  0  0  0  0  0  0
   -2.2942   -0.6541   -0.1951 N   0  0  0  0  0  0  0  0  0  0  0  0
    0.1598    0.5020    0.9792 N   0  0  0  0  0  0  0  0  0  0  0  0
    1.6542   -1.2883   -0.4363 N   0  0  0  0  0  0  0  0  0  0  0  0
   -0.5427   -2.1639    0.9354 N   0  0  2  0  0  0  0  0  0  0  0  0
   -1.8157   -2.8707    0.6083 C   0  0  0  0  0  0  0  0  0  0  0  0
   -2.8161   -1.8252    0.2045 C   0  0  0  0  0  0  0  0  0  0  0  0
   -4.1948   -2.0663    0.2433 C   0  0  0  0  0  0  0  0  0  0  0  0
   -5.0546   -1.0663   -0.1641 C   0  0  0  0  0  0  0  0  0  0  0  0
   -4.5461    0.1964   -0.5369 C   0  0  0  0  0  0  0  0  0  0  0  0
   -5.4030    1.2686   -0.9013 C   0  0  0  0  0  3  0  0  0  0  0  0
   -4.8833    2.5069   -1.2042 C   0  0  0  0  0  0  0  0  0  0  0  0
   -3.4873    2.7159   -1.1343 C   0  0  0  0  0  0  0  0  0  0  0  0
   -2.6200    1.6936   -0.7958 C   0  0  0  0  0  0  0  0  0  0  0  0
   -3.1233    0.4052   -0.5164 C   0  0  0  0  0  0  0  0  0  0  0  0
   -0.6481   -1.4306    2.2287 C   0  0  0  0  0  0  0  0  0  0  0  0
    0.0207   -0.0834    2.1759 C   0  0  0  0  0  0  0  0  0  0  0  0
    0.4107    0.5178    3.3835 C   0  0  0  0  0  0  0  0  0  0  0  0
    0.9618    1.7785    3.3537 C   0  0  0  0  0  0  0  0  0  0  0  0
    1.1309    2.4388    2.1188 C   0  0  0  0  0  0  0  0  0  0  0  0
    1.6986    3.7384    2.0519 C   0  0  0  0  0  0  0  0  0  0  0  0
    1.8596    4.3707    0.8408 C   0  0  0  0  0  0  0  0  0  0  0  0
    1.4536    3.7152   -0.3429 C   0  0  0  0  0  0  0  0  0  0  0  0
    0.9024    2.4482   -0.3163 C   0  0  0  0  0  0  0  0  0  0  0  0
    0.7230    1.7717    0.9109 C   0  0  0  0  0  0  0  0  0  0  0  0
    0.6449   -3.0579    0.8594 C   0  0  0  0  0  0  0  0  0  0  0  0
    1.8599   -2.2744    0.4512 C   0  0  0  0  0  0  0  0  0  0  0  0
    3.1348   -2.6387    0.9046 C   0  0  0  0  0  0  0  0  0  0  0  0
    4.2337   -1.9672    0.4110 C   0  0  0  0  0  0  0  0  0  0  0  0
    4.0667   -0.9780   -0.5792 C   0  0  0  0  0  0  0  0  0  0  0  0
    5.1812   -0.3222   -1.1671 C   0  0  0  0  0  0  0  0  0  0  0  0
    5.0026    0.5824   -2.1871 C   0  0  0  0  0  0  0  0  0  0  0  0
    3.6970    0.8510   -2.6604 C   0  0  0  0  0  0  0  0  0  0  0  0
    2.5884    0.2548   -2.0941 C   0  0  0  0  0  0  0  0  0  0  0  0
    2.7357   -0.6581   -1.0283 C   0  0  0  0  0  0  0  0  0  0  0  0
   -2.1635   -3.4624    1.4631 H   0  0  0  0  0  0  0  0  0  0  0  0
   -1.6291   -3.5412   -0.2318 H   0  0  0  0  0  0  0  0  0  0  0  0
   -4.5617   -3.0304    0.5788 H   0  0  0  0  0  0  0  0  0  0  0  0
   -6.1280   -1.2337   -0.1739 H   0  0  0  0  0  0  0  0  0  0  0  0
   -6.4745    1.0933   -0.9244 H   0  0  0  0  0  0  0  0  0  0  0  0
   -5.5403    3.3255   -1.4790 H   0  0  0  0  0  0  0  0  0  0  0  0
   -3.0850    3.7029   -1.3413 H   0  0  0  0  0  0  0  0  0  0  0  0
   -1.5621    1.8832   -0.7271 H   0  0  0  0  0  0  0  0  0  0  0  0
   -0.2416   -2.0404    3.0419 H   0  0  0  0  0  0  0  0  0  0  0  0
   -1.7092   -1.2733    2.4463 H   0  0  0  0  0  0  0  0  0  0  0  0
    0.2716   -0.0166    4.3173 H   0  0  0  0  0  0  0  0  0  0  0  0
    1.2744    2.2683    4.2717 H   0  0  0  0  0  0  0  0  0  0  0  0
    1.9984    4.2217    2.9771 H   0  0  0  0  0  0  0  0  0  0  0  0
    2.2908    5.3651    0.7917 H   0  0  0  0  0  0  0  0  0  0  0  0
    1.5764    4.2158   -1.2987 H   0  0  0  0  0  0  0  0  0  0  0  0
    0.5977    1.9754   -1.2347 H   0  0  0  0  0  0  0  0  0  0  0  0
    0.4506   -3.7947    0.0745 H   0  0  0  0  0  0  0  0  0  0  0  0
    0.7917   -3.5938    1.8023 H   0  0  0  0  0  0  0  0  0  0  0  0
    3.2374   -3.4378    1.6306 H   0  0  0  0  0  0  0  0  0  0  0  0
    5.2328   -2.2106    0.7614 H   0  0  0  0  0  0  0  0  0  0  0  0
    6.1764   -0.5713   -0.8105 H   0  0  0  0  0  0  0  0  0  0  0  0
    5.8564    1.0708   -2.6450 H   0  0  0  0  0  0  0  0  0  0  0  0
    3.5625    1.5328   -3.4947 H   0  0  0  0  0  0  0  0  0  0  0  0
    1.5991    0.4548   -2.4773 H   0  0  0  0  0  0  0  0  0  0  0  0
   -0.3464    0.3186   -1.8990 O   0  0  0  0  0  0  0  0  0  0  0  0
   -0.7535   -0.1648   -2.6487 H   0  0  0  0  0  0  0  0  0  0  0  0
   -0.5760   -2.1270   -1.6733 F   0  0  0  0  0  0  0  0  0  0  0  0
  1  2  1  0  0  0  0
  2  7  1  0  0  0  0
  3 17  2  0  0  0  0
  3  1  9  0  0  0  0
  4 27  2  0  0  0  0
  4  1  9  0  0  0  0
  5 16  1  1  0  0  0
  5  1  9  0  0  0  0
  6  5  1  0  0  0  0
  6 36  1  0  0  0  0
  7  8  2  0  0  0  0
  7  6  1  0  0  0  0
  8 38  1  0  0  0  0
  9  8  1  0  0  0  0
 10 15  1  0  0  0  0
 10  9  2  0  0  0  0
 11 10  1  0  0  0  0
 12 13  2  0  0  0  0
 12 11  1  0  0  0  0
 13 14  1  0  0  0  0
 14 43  1  0  0  0  0
 14 15  2  0  0  0  0
 15  2  1  0  0  0  0
 16 45  1  0  0  0  0
 16 44  1  0  0  0  0
 17 16  1  0  0  0  0
 17 18  1  0  0  0  0
 18 46  1  0  0  0  0
 19 18  2  0  0  0  0
 19 47  1  0  0  0  0
 20 19  1  0  0  0  0
 21 20  2  0  0  0  0
 21 48  1  0  0  0  0
 22 21  1  0  0  0  0
 23 24  1  0  0  0  0
 23 22  2  0  0  0  0
 24 25  2  0  0  0  0
 25  3  1  0  0  0  0
 25 20  1  0  0  0  0
 26  5  1  0  0  0  0
 26 53  1  0  0  0  0
 27 26  1  0  0  0  0
 27 28  1  0  0  0  0
 28 54  1  0  0  0  0
 29 55  1  0  0  0  0
 29 28  2  0  0  0  0
 30 29  1  0  0  0  0
 31 56  1  0  0  0  0
 31 30  2  0  0  0  0
 32 31  1  0  0  0  0
 33 32  2  0  0  0  0
 33 34  1  0  0  0  0
 34 35  2  0  0  0  0
 35 30  1  0  0  0  0
 35  4  1  0  0  0  0
 37  6  1  0  0  0  0
 39  9  1  0  0  0  0
 40 11  1  0  0  0  0
 41 12  1  0  0  0  0
 42 13  1  0  0  0  0
 49 22  1  0  0  0  0
 50 23  1  0  0  0  0
 51 24  1  0  0  0  0
 52 26  1  0  0  0  0
 57 32  1  0  0  0  0
 58 33  1  0  0  0  0
 59 34  1  0  0  0  0
 60  1  1  0  0  0  0
 61 60  1  0  0  0  0
 62  1  1  0  0  0  0
M  RAD  1  11   2
M  CHG  1   1   2
M  END
$$$$
