
 OpenBabel02052520093D

 69 77  0  0  0  0  0  0  0  0999 V2000
   -0.4856   -0.1066   -0.0527 Fe  0  2  0  0  0  0  0  0  0  0  0  0
    1.5560    0.8343    0.5748 N   0  0  0  0  0  0  0  0  0  0  0  0
    0.9021   -1.8520    0.5472 N   0  0  0  0  0  0  0  0  0  0  0  0
   -2.3752   -1.0529    0.4031 N   0  0  0  0  0  0  0  0  0  0  0  0
   -0.5689   -0.0607    2.1693 N   0  0  2  0  0  0  0  0  0  0  0  0
   -0.3175   -0.1767   -1.8707 O   0  0  0  0  0  0  0  0  0  0  0  0
   -0.0254    2.6538   -1.8707 O   0  0  0  0  0  0  0  0  0  0  0  0
   -1.2416    1.7004    0.0817 O   0  0  0  0  0  0  0  0  0  0  0  0
    0.3336    3.5884    0.4548 O   0  0  0  0  0  0  0  0  0  0  0  0
   -0.5505    2.9630   -0.5298 S   0  0  0  0  0  0  0  0  0  0  0  0
   -2.8945    3.4498   -1.5870 F   0  0  0  0  0  0  0  0  0  0  0  0
   -1.6804    5.2222   -1.2096 F   0  0  0  0  0  0  0  0  0  0  0  0
   -2.6434    4.1839    0.4511 F   0  0  0  0  0  0  0  0  0  0  0  0
    0.2962    1.0450    2.6392 C   0  0  0  0  0  0  0  0  0  0  0  0
    1.5991    1.1306    1.8802 C   0  0  0  0  0  0  0  0  0  0  0  0
    2.7659    1.5943    2.5123 C   0  0  0  0  0  0  0  0  0  0  0  0
    3.9190    1.7582    1.7656 C   0  0  0  0  0  0  0  0  0  0  0  0
    3.8955    1.4619    0.3853 C   0  0  0  0  0  0  0  0  0  0  0  0
    5.0313    1.6184   -0.4532 C   0  0  0  0  0  3  0  0  0  0  0  0
    4.9607    1.3367   -1.8207 C   0  0  0  0  0  0  0  0  0  0  0  0
    3.7540    0.9066   -2.3827 C   0  0  0  0  0  0  0  0  0  0  0  0
    2.6137    0.7464   -1.5893 C   0  0  0  0  0  0  0  0  0  0  0  0
    2.6694    1.0046   -0.1857 C   0  0  0  0  0  0  0  0  0  0  0  0
   -0.1549   -1.3861    2.6893 C   0  0  0  0  0  0  0  0  0  0  0  0
    0.9467   -2.0251    1.8743 C   0  0  0  0  0  0  0  0  0  0  0  0
    1.9318   -2.8034    2.5112 C   0  0  0  0  0  0  0  0  0  0  0  0
    2.9133   -3.4041    1.7490 C   0  0  0  0  0  0  0  0  0  0  0  0
    2.9073   -3.2284    0.3473 C   0  0  0  0  0  0  0  0  0  0  0  0
    3.8935   -3.8055   -0.4963 C   0  0  0  0  0  0  0  0  0  0  0  0
    3.8577   -3.6085   -1.8703 C   0  0  0  0  0  0  0  0  0  0  0  0
    2.8292   -2.8380   -2.4394 C   0  0  0  0  0  0  0  0  0  0  0  0
    1.8407   -2.2621   -1.6454 C   0  0  0  0  0  0  0  0  0  0  0  0
    1.8634   -2.4388   -0.2315 C   0  0  0  0  0  0  0  0  0  0  0  0
   -2.0024    0.1960    2.4573 C   0  0  0  0  0  0  0  0  0  0  0  0
   -2.8737   -0.6848    1.5898 C   0  0  0  0  0  0  0  0  0  0  0  0
   -4.1575   -1.0556    2.0256 C   0  0  0  0  0  0  0  0  0  0  0  0
   -4.9465   -1.8284    1.1993 C   0  0  0  0  0  0  0  0  0  0  0  0
   -4.4536   -2.2464   -0.0566 C   0  0  0  0  0  0  0  0  0  0  0  0
   -5.2176   -3.0568   -0.9378 C   0  0  0  0  0  0  0  0  0  0  0  0
   -4.6987   -3.4472   -2.1546 C   0  0  0  0  0  0  0  0  0  0  0  0
   -3.3998   -3.0363   -2.5307 C   0  0  0  0  0  0  0  0  0  0  0  0
   -2.6270   -2.2494   -1.6972 C   0  0  0  0  0  0  0  0  0  0  0  0
   -3.1347   -1.8359   -0.4418 C   0  0  0  0  0  0  0  0  0  0  0  0
   -2.0595    4.0447   -0.7390 C   0  0  0  0  0  0  0  0  0  0  0  0
    0.4741    0.9788    3.7199 H   0  0  0  0  0  0  0  0  0  0  0  0
   -0.2241    1.9870    2.4368 H   0  0  0  0  0  0  0  0  0  0  0  0
    2.7492    1.8291    3.5713 H   0  0  0  0  0  0  0  0  0  0  0  0
    4.8338    2.1168    2.2292 H   0  0  0  0  0  0  0  0  0  0  0  0
    5.9614    1.9743   -0.0183 H   0  0  0  0  0  0  0  0  0  0  0  0
    5.8373    1.4747   -2.4452 H   0  0  0  0  0  0  0  0  0  0  0  0
    3.6878    0.7207   -3.4499 H   0  0  0  0  0  0  0  0  0  0  0  0
    1.6562    0.4913   -2.0223 H   0  0  0  0  0  0  0  0  0  0  0  0
   -1.0240   -2.0510    2.6371 H   0  0  0  0  0  0  0  0  0  0  0  0
    0.1346   -1.3174    3.7454 H   0  0  0  0  0  0  0  0  0  0  0  0
    1.9131   -2.9182    3.5899 H   0  0  0  0  0  0  0  0  0  0  0  0
    3.6901   -4.0033    2.2161 H   0  0  0  0  0  0  0  0  0  0  0  0
    4.6760   -4.4123   -0.0490 H   0  0  0  0  0  0  0  0  0  0  0  0
    4.6143   -4.0604   -2.5035 H   0  0  0  0  0  0  0  0  0  0  0  0
    2.7897   -2.7029   -3.5159 H   0  0  0  0  0  0  0  0  0  0  0  0
    1.0255   -1.7010   -2.0869 H   0  0  0  0  0  0  0  0  0  0  0  0
   -2.2073    1.2401    2.2061 H   0  0  0  0  0  0  0  0  0  0  0  0
   -2.2305    0.0453    3.5202 H   0  0  0  0  0  0  0  0  0  0  0  0
   -4.5096   -0.7315    2.9993 H   0  0  0  0  0  0  0  0  0  0  0  0
   -5.9434   -2.1284    1.5102 H   0  0  0  0  0  0  0  0  0  0  0  0
   -6.2162   -3.3598   -0.6366 H   0  0  0  0  0  0  0  0  0  0  0  0
   -5.2864   -4.0643   -2.8265 H   0  0  0  0  0  0  0  0  0  0  0  0
   -3.0039   -3.3390   -3.4953 H   0  0  0  0  0  0  0  0  0  0  0  0
   -1.6472   -1.9094   -2.0071 H   0  0  0  0  0  0  0  0  0  0  0  0
   -0.5161    0.6781   -2.3110 H   0  0  0  0  0  0  0  0  0  0  0  0
  1  8  1  0  0  0  0
  1  2  1  0  0  0  0
  2 15  1  0  0  0  0
  3 25  2  0  0  0  0
  3  1  9  0  0  0  0
  4 35  2  0  0  0  0
  4  1  9  0  0  0  0
  5 34  1  1  0  0  0
  5 14  1  0  0  0  0
  5 24  1  0  0  0  0
  5  1  9  0  0  0  0
  6  1  1  0  0  0  0
  7 10  2  0  0  0  0
 10  8  1  0  0  0  0
 10  9  2  0  0  0  0
 11 44  1  0  0  0  0
 12 44  1  0  0  0  0
 14 45  1  0  0  0  0
 15 16  2  0  0  0  0
 15 14  1  0  0  0  0
 16 47  1  0  0  0  0
 17 48  1  0  0  0  0
 17 16  1  0  0  0  0
 18 17  2  0  0  0  0
 19 49  1  0  0  0  0
 19 18  1  0  0  0  0
 20 19  1  0  0  0  0
 21 20  2  0  0  0  0
 21 22  1  0  0  0  0
 22 23  2  0  0  0  0
 23 18  1  0  0  0  0
 23  2  1  0  0  0  0
 24 54  1  0  0  0  0
 25 26  1  0  0  0  0
 25 24  1  0  0  0  0
 26 55  1  0  0  0  0
 27 56  1  0  0  0  0
 27 26  2  0  0  0  0
 28 27  1  0  0  0  0
 29 57  1  0  0  0  0
 29 28  2  0  0  0  0
 30 29  1  0  0  0  0
 31 30  2  0  0  0  0
 31 32  1  0  0  0  0
 32 33  2  0  0  0  0
 33 28  1  0  0  0  0
 33  3  1  0  0  0  0
 34 62  1  0  0  0  0
 35 36  1  0  0  0  0
 35 34  1  0  0  0  0
 36 63  1  0  0  0  0
 37 64  1  0  0  0  0
 37 36  2  0  0  0  0
 38 37  1  0  0  0  0
 39 65  1  0  0  0  0
 39 38  2  0  0  0  0
 40 39  1  0  0  0  0
 41 40  2  0  0  0  0
 41 42  1  0  0  0  0
 42 43  2  0  0  0  0
 43 38  1  0  0  0  0
 43  4  1  0  0  0  0
 44 10  1  0  0  0  0
 44 13  1  0  0  0  0
 46 14  1  0  0  0  0
 50 20  1  0  0  0  0
 51 21  1  0  0  0  0
 52 22  1  0  0  0  0
 53 24  1  0  0  0  0
 58 30  1  0  0  0  0
 59 31  1  0  0  0  0
 60 32  1  0  0  0  0
 61 34  1  0  0  0  0
 66 40  1  0  0  0  0
 67 41  1  0  0  0  0
 68 42  1  0  0  0  0
 69  6  1  0  0  0  0
M  RAD  1  19   2
M  CHG  1   1   2
M  END
$$$$
