
 OpenBabel02052520093D

 62 70  0  0  0  0  0  0  0  0999 V2000
   -0.5520   -0.5567   -0.7547 Fe  0  2  0  0  0  0  0  0  0  0  0  0
   -2.6358   -0.3461    0.0092 N   0  0  0  0  0  0  0  0  0  0  0  0
    0.4351    0.6790    1.0492 N   0  0  0  0  0  0  0  0  0  0  0  0
    1.5807   -1.3212   -0.4955 N   0  0  0  0  0  0  0  0  0  0  0  0
   -0.6884   -1.9374    1.0065 N   0  0  2  0  0  0  0  0  0  0  0  0
   -2.0494   -2.5218    0.9266 C   0  0  0  0  0  0  0  0  0  0  0  0
   -3.0660   -1.4378    0.6507 C   0  0  0  0  0  0  0  0  0  0  0  0
   -4.4055   -1.6201    1.0409 C   0  0  0  0  0  0  0  0  0  0  0  0
   -5.3289   -0.6380    0.7469 C   0  0  0  0  0  0  0  0  0  0  0  0
   -4.9100    0.5381    0.0875 C   0  0  0  0  0  0  0  0  0  0  0  0
   -5.8098    1.5951   -0.2183 C   0  0  0  0  0  0  0  0  0  0  0  0
   -5.3617    2.7404   -0.8524 C   0  0  0  0  0  0  0  0  0  0  0  0
   -4.0010    2.8618   -1.1993 C   0  0  0  0  0  0  0  0  0  0  0  0
   -3.0963    1.8493   -0.9183 C   0  0  0  0  0  0  0  0  0  0  0  0
   -3.5294    0.6629   -0.2728 C   0  0  0  0  0  0  0  0  0  0  0  0
   -0.5319   -1.1836    2.2760 C   0  0  0  0  0  0  0  0  0  0  0  0
    0.4403   -0.0304    2.1824 C   0  0  0  0  0  0  0  0  0  0  0  0
    1.2553    0.2875    3.2864 C   0  0  0  0  0  0  0  0  0  0  0  0
    2.1043    1.3734    3.2062 C   0  0  0  0  0  0  0  0  0  0  0  0
    2.1292    2.1438    2.0229 C   0  0  0  0  0  0  0  0  0  0  0  0
    2.9789    3.2712    1.8660 C   0  0  0  0  0  0  0  0  0  0  0  0
    2.9747    4.0080    0.6870 C   0  0  0  0  0  0  0  0  0  0  0  0
    2.1157    3.6419   -0.3617 C   0  0  0  0  0  0  0  0  0  0  0  0
    1.2657    2.5438   -0.2433 C   0  0  0  0  0  0  0  0  0  0  0  0
    1.2598    1.7651    0.9507 C   0  0  0  0  0  0  0  0  0  0  0  0
    0.3681   -2.9595    0.8189 C   0  0  0  0  0  0  0  0  0  0  0  0
    1.6709   -2.3439    0.3622 C   0  0  0  0  0  0  0  0  0  0  0  0
    2.9046   -2.8748    0.7825 C   0  0  0  0  0  0  0  0  0  0  0  0
    4.0759   -2.3147    0.3087 C   0  0  0  0  0  0  0  0  0  0  0  0
    4.0110   -1.2314   -0.5953 C   0  0  0  0  0  0  0  0  0  0  0  0
    5.1710   -0.6053   -1.1264 C   0  0  0  0  0  3  0  0  0  0  0  0
    5.0625    0.4494   -2.0263 C   0  0  0  0  0  0  0  0  0  0  0  0
    3.7945    0.8984   -2.4300 C   0  0  0  0  0  0  0  0  0  0  0  0
    2.6349    0.3095   -1.9309 C   0  0  0  0  0  0  0  0  0  0  0  0
    2.7212   -0.7602   -0.9938 C   0  0  0  0  0  0  0  0  0  0  0  0
   -2.3030   -3.0679    1.8447 H   0  0  0  0  0  0  0  0  0  0  0  0
   -2.0658   -3.2311    0.0944 H   0  0  0  0  0  0  0  0  0  0  0  0
   -4.6953   -2.5273    1.5607 H   0  0  0  0  0  0  0  0  0  0  0  0
   -6.3716   -0.7560    1.0284 H   0  0  0  0  0  0  0  0  0  0  0  0
   -6.8557    1.4873    0.0544 H   0  0  0  0  0  0  0  0  0  0  0  0
   -6.0553    3.5420   -1.0841 H   0  0  0  0  0  0  0  0  0  0  0  0
   -3.6549    3.7612   -1.6992 H   0  0  0  0  0  0  0  0  0  0  0  0
   -2.0564    1.9311   -1.2090 H   0  0  0  0  0  0  0  0  0  0  0  0
   -0.2506   -1.8620    3.0913 H   0  0  0  0  0  0  0  0  0  0  0  0
   -1.5077   -0.7601    2.5349 H   0  0  0  0  0  0  0  0  0  0  0  0
    1.2114   -0.3219    4.1830 H   0  0  0  0  0  0  0  0  0  0  0  0
    2.7507    1.6367    4.0389 H   0  0  0  0  0  0  0  0  0  0  0  0
    3.6299    3.5561    2.6881 H   0  0  0  0  0  0  0  0  0  0  0  0
    3.6248    4.8708    0.5845 H   0  0  0  0  0  0  0  0  0  0  0  0
    2.0993    4.2292   -1.2747 H   0  0  0  0  0  0  0  0  0  0  0  0
    0.5809    2.2746   -1.0386 H   0  0  0  0  0  0  0  0  0  0  0  0
    0.0340   -3.6331    0.0226 H   0  0  0  0  0  0  0  0  0  0  0  0
    0.5129   -3.5552    1.7291 H   0  0  0  0  0  0  0  0  0  0  0  0
    2.9242   -3.7123    1.4719 H   0  0  0  0  0  0  0  0  0  0  0  0
    5.0417   -2.6997    0.6241 H   0  0  0  0  0  0  0  0  0  0  0  0
    6.1490   -0.9721   -0.8275 H   0  0  0  0  0  0  0  0  0  0  0  0
    5.9579    0.9108   -2.4297 H   0  0  0  0  0  0  0  0  0  0  0  0
    3.7127    1.7027   -3.1544 H   0  0  0  0  0  0  0  0  0  0  0  0
    1.6521    0.6171   -2.2683 H   0  0  0  0  0  0  0  0  0  0  0  0
   -0.4239    0.8194   -1.9751 O   0  0  0  0  0  0  0  0  0  0  0  0
   -0.7492    0.5890   -2.8645 H   0  0  0  0  0  0  0  0  0  0  0  0
   -1.0296   -2.2422   -2.2040 Cl  0  0  0  0  0  0  0  0  0  0  0  0
  1  4  1  0  0  0  0
  2  7  2  0  0  0  0
  2  1  9  0  0  0  0
  3 17  2  0  0  0  0
  3  1  9  0  0  0  0
  4 27  1  0  0  0  0
  5  6  1  6  0  0  0
  5 16  1  0  0  0  0
  5  1  9  0  0  0  0
  6 36  1  0  0  0  0
  7  6  1  0  0  0  0
  7  8  1  0  0  0  0
  8 38  1  0  0  0  0
  9 39  1  0  0  0  0
  9  8  2  0  0  0  0
 10  9  1  0  0  0  0
 11 40  1  0  0  0  0
 11 10  2  0  0  0  0
 12 11  1  0  0  0  0
 13 14  1  0  0  0  0
 13 12  2  0  0  0  0
 14 15  2  0  0  0  0
 15  2  1  0  0  0  0
 15 10  1  0  0  0  0
 16 45  1  0  0  0  0
 16 44  1  0  0  0  0
 17 16  1  0  0  0  0
 17 18  1  0  0  0  0
 18 46  1  0  0  0  0
 19 18  2  0  0  0  0
 19 47  1  0  0  0  0
 20 19  1  0  0  0  0
 21 20  2  0  0  0  0
 21 48  1  0  0  0  0
 22 21  1  0  0  0  0
 23 24  1  0  0  0  0
 23 22  2  0  0  0  0
 25 24  2  0  0  0  0
 25  3  1  0  0  0  0
 25 20  1  0  0  0  0
 26  5  1  0  0  0  0
 26 53  1  0  0  0  0
 27 28  2  0  0  0  0
 27 26  1  0  0  0  0
 28 54  1  0  0  0  0
 29 55  1  0  0  0  0
 29 28  1  0  0  0  0
 30 29  2  0  0  0  0
 31 56  1  0  0  0  0
 31 30  1  0  0  0  0
 32 31  1  0  0  0  0
 33 32  2  0  0  0  0
 33 34  1  0  0  0  0
 34 35  2  0  0  0  0
 35 30  1  0  0  0  0
 35  4  1  0  0  0  0
 37  6  1  0  0  0  0
 41 12  1  0  0  0  0
 42 13  1  0  0  0  0
 43 14  1  0  0  0  0
 49 22  1  0  0  0  0
 50 23  1  0  0  0  0
 51 24  1  0  0  0  0
 52 26  1  0  0  0  0
 57 32  1  0  0  0  0
 58 33  1  0  0  0  0
 59 34  1  0  0  0  0
 60  1  1  0  0  0  0
 61 60  1  0  0  0  0
 62  1  1  0  0  0  0
M  RAD  1  31   2
M  CHG  1   1   2
M  END
$$$$
