
 OpenBabel02052520093D

102113  0  0  0  0  0  0  0  0999 V2000
   -1.2463   -0.3664    0.0734 Fe  0  1  0  0  0  0  0  0  0  0  0  0
    1.8785    0.2602   -0.0160 B   0  5  2  0  0  0  0  0  0  0  0  0
    3.0335    0.4642   -0.0564 H   0  0  0  0  0  0  0  0  0  0  0  0
   -2.6764    0.4842   -1.1888 O   0  0  0  0  0  0  0  0  0  0  0  0
   -3.4751    0.5815   -0.1911 C   0  0  0  0  0  0  0  0  0  0  0  0
   -2.9764    0.2196    0.9452 O   0  0  0  0  0  0  0  0  0  0  0  0
   -0.2507    1.5540    0.0470 N   0  0  0  0  0  0  0  0  0  0  0  0
    1.0847    1.5366   -0.2290 N   0  0  0  0  0  0  0  0  0  0  0  0
   -2.0006    3.3330    0.2363 C   0  0  0  0  0  0  0  0  0  0  0  0
   -2.6722    4.1915   -0.6558 C   0  0  0  0  0  0  0  0  0  0  0  0
   -2.2249    4.4159   -1.6196 H   0  0  0  0  0  0  0  0  0  0  0  0
   -3.9110    4.7229   -0.3132 C   0  0  0  0  0  0  0  0  0  0  0  0
   -4.4361    5.3669   -1.0116 H   0  0  0  0  0  0  0  0  0  0  0  0
   -4.4768    4.4323    0.9348 C   0  0  0  0  0  0  0  0  0  0  0  0
   -5.4402    4.8541    1.2037 H   0  0  0  0  0  0  0  0  0  0  0  0
   -3.8023    3.6008    1.8366 C   0  0  0  0  0  0  0  0  0  0  0  0
   -4.2358    3.3898    2.8092 H   0  0  0  0  0  0  0  0  0  0  0  0
   -2.5754    3.0461    1.4898 C   0  0  0  0  0  0  0  0  0  0  0  0
   -2.0455    2.4019    2.1825 H   0  0  0  0  0  0  0  0  0  0  0  0
   -0.6620    2.8415   -0.0931 C   0  0  0  0  0  0  0  0  0  0  0  0
    0.4284    3.6366   -0.4874 C   0  0  0  0  0  0  0  0  0  0  0  0
    0.4178    4.7013   -0.6661 H   0  0  0  0  0  0  0  0  0  0  0  0
    1.5303    2.7918   -0.5532 C   0  0  0  0  0  0  0  0  0  0  0  0
    2.9348    3.1148   -0.8309 C   0  0  0  0  0  0  0  0  0  0  0  0
    3.5100    4.2339   -0.2017 C   0  0  0  0  0  0  0  0  0  0  0  0
    2.9069    4.8436    0.4650 H   0  0  0  0  0  0  0  0  0  0  0  0
    4.8536    4.5426   -0.4100 C   0  0  0  0  0  0  0  0  0  0  0  0
    5.2902    5.4068    0.0814 H   0  0  0  0  0  0  0  0  0  0  0  0
    5.6345    3.7419   -1.2496 C   0  0  0  0  0  0  0  0  0  0  0  0
    6.6807    3.9841   -1.4108 H   0  0  0  0  0  0  0  0  0  0  0  0
    5.0642    2.6389   -1.8932 C   0  0  0  0  0  0  0  0  0  0  0  0
    5.6620    2.0188   -2.5539 H   0  0  0  0  0  0  0  0  0  0  0  0
    3.7220    2.3307   -1.6923 C   0  0  0  0  0  0  0  0  0  0  0  0
    3.2814    1.4877   -2.2135 H   0  0  0  0  0  0  0  0  0  0  0  0
    0.2635   -0.9835   -1.5150 N   0  0  0  0  0  0  0  0  0  0  0  0
    1.5244   -0.7670   -1.1440 N   0  0  0  0  0  0  0  0  0  0  0  0
   -0.8440   -2.3474   -3.2935 C   0  0  0  0  0  0  0  0  0  0  0  0
   -0.6990   -3.5013   -4.1218 C   0  0  0  0  0  0  0  0  0  0  0  0
    0.2584   -4.0054   -4.1853 H   0  0  0  0  0  0  0  0  0  0  0  0
   -1.7838   -4.0102   -4.8033 C   0  0  0  0  0  0  0  0  0  0  0  0
   -1.6750   -4.8998   -5.4150 H   0  0  0  0  0  0  0  0  0  0  0  0
   -3.0434   -3.3771   -4.7011 C   0  0  0  0  0  0  0  0  0  0  0  0
   -3.8914   -3.7806   -5.2465 H   0  0  0  0  0  0  0  0  0  0  0  0
   -3.2019   -2.2342   -3.9039 C   0  0  0  0  0  0  0  0  0  0  0  0
   -4.1691   -1.7473   -3.8347 H   0  0  0  0  0  0  0  0  0  0  0  0
   -2.1251   -1.7245   -3.2002 C   0  0  0  0  0  0  0  0  0  0  0  0
   -2.2489   -0.8317   -2.6050 H   0  0  0  0  0  0  0  0  0  0  0  0
    0.3061   -1.8388   -2.6040 C   0  0  0  0  0  0  0  0  0  0  0  0
    1.6610   -2.1240   -2.8983 C   0  0  0  0  0  0  0  0  0  0  0  0
    2.0424   -2.7410   -3.6968 H   0  0  0  0  0  0  0  0  0  0  0  0
    2.4209   -1.4411   -1.9778 C   0  0  0  0  0  0  0  0  0  0  0  0
    3.8794   -1.3443   -1.8876 C   0  0  0  0  0  0  0  0  0  0  0  0
    4.5655   -1.4965   -0.6704 C   0  0  0  0  0  0  0  0  0  0  0  0
    4.0171   -1.7129    0.2387 H   0  0  0  0  0  0  0  0  0  0  0  0
    5.9522   -1.3956   -0.6308 C   0  0  0  0  0  0  0  0  0  0  0  0
    6.4688   -1.5105    0.3164 H   0  0  0  0  0  0  0  0  0  0  0  0
    6.6721   -1.1498   -1.8051 C   0  0  0  0  0  0  0  0  0  0  0  0
    7.7544   -1.0693   -1.7715 H   0  0  0  0  0  0  0  0  0  0  0  0
    6.0001   -1.0171   -3.0245 C   0  0  0  0  0  0  0  0  0  0  0  0
    6.5572   -0.8348   -3.9383 H   0  0  0  0  0  0  0  0  0  0  0  0
    4.6112   -1.1171   -3.0692 C   0  0  0  0  0  0  0  0  0  0  0  0
    4.0855   -0.9934   -4.0117 H   0  0  0  0  0  0  0  0  0  0  0  0
    0.2721   -0.7964    1.6207 N   0  0  0  0  0  0  0  0  0  0  0  0
    1.5014   -0.3286    1.3770 N   0  0  0  0  0  0  0  0  0  0  0  0
   -0.7932   -2.1296    3.4446 C   0  0  0  0  0  0  0  0  0  0  0  0
   -0.5432   -3.2388    4.3012 C   0  0  0  0  0  0  0  0  0  0  0  0
    0.4715   -3.6007    4.4279 H   0  0  0  0  0  0  0  0  0  0  0  0
   -1.5901   -3.8853    4.9275 C   0  0  0  0  0  0  0  0  0  0  0  0
   -1.3993   -4.7450    5.5616 H   0  0  0  0  0  0  0  0  0  0  0  0
   -2.9131   -3.4320    4.7372 C   0  0  0  0  0  0  0  0  0  0  0  0
   -3.7317   -3.9414    5.2368 H   0  0  0  0  0  0  0  0  0  0  0  0
   -3.1743   -2.3295    3.9116 C   0  0  0  0  0  0  0  0  0  0  0  0
   -4.1924   -1.9801    3.7754 H   0  0  0  0  0  0  0  0  0  0  0  0
   -2.1333   -1.6839    3.2658 C   0  0  0  0  0  0  0  0  0  0  0  0
    0.3280   -1.4753    2.8200 C   0  0  0  0  0  0  0  0  0  0  0  0
    1.6454   -1.4022    3.3199 C   0  0  0  0  0  0  0  0  0  0  0  0
    1.9937   -1.7599    4.2766 H   0  0  0  0  0  0  0  0  0  0  0  0
    2.3674   -0.6372    2.4237 C   0  0  0  0  0  0  0  0  0  0  0  0
    3.7532   -0.1856    2.5083 C   0  0  0  0  0  0  0  0  0  0  0  0
    4.7244   -1.0644    3.0320 C   0  0  0  0  0  0  0  0  0  0  0  0
    4.4358   -2.0684    3.3295 H   0  0  0  0  0  0  0  0  0  0  0  0
    6.0520   -0.6602    3.1349 C   0  0  0  0  0  0  0  0  0  0  0  0
    6.7954   -1.3438    3.5332 H   0  0  0  0  0  0  0  0  0  0  0  0
    6.4271    0.6241    2.7211 C   0  0  0  0  0  0  0  0  0  0  0  0
    7.4644    0.9358    2.7982 H   0  0  0  0  0  0  0  0  0  0  0  0
    5.4664    1.5094    2.2173 C   0  0  0  0  0  0  0  0  0  0  0  0
    5.7501    2.5087    1.9028 H   0  0  0  0  0  0  0  0  0  0  0  0
    4.1378    1.1139    2.1188 C   0  0  0  0  0  0  0  0  0  0  0  0
    3.3977    1.8177    1.7554 H   0  0  0  0  0  0  0  0  0  0  0  0
   -2.3422   -0.8182    2.6545 H   0  0  0  0  0  0  0  0  0  0  0  0
   -4.8426    1.0672   -0.3203 C   0  0  0  0  0  0  0  0  0  0  0  0
   -5.7077    1.0328    0.7866 C   0  0  0  0  0  0  0  0  0  0  0  0
   -5.2800    1.5913   -1.5488 C   0  0  0  0  0  3  0  0  0  0  0  0
   -7.0052    1.5179    0.6616 C   0  0  0  0  0  0  0  0  0  0  0  0
   -5.3498    0.6290    1.7274 H   0  0  0  0  0  0  0  0  0  0  0  0
   -6.5766    2.0816   -1.6648 C   0  0  0  0  0  0  0  0  0  0  0  0
   -4.5935    1.6204   -2.3883 H   0  0  0  0  0  0  0  0  0  0  0  0
   -7.4376    2.0438   -0.5617 C   0  0  0  0  0  0  0  0  0  0  0  0
   -7.6813    1.4893    1.5104 H   0  0  0  0  0  0  0  0  0  0  0  0
   -6.9201    2.4934   -2.6086 H   0  0  0  0  0  0  0  0  0  0  0  0
   -8.4506    2.4242   -0.6561 H   0  0  0  0  0  0  0  0  0  0  0  0
   -1.9584   -2.7570    0.0486 Br  0  0  0  0  0  0  0  0  0  0  0  0
  1  4  1  0  0  0  0
  1  6  1  0  0  0  0
  2  3  1  6  0  0  0
  2 64  1  0  0  0  0
  4  5  1  0  0  0  0
  5 91  2  0  0  0  0
  5  6  1  0  0  0  0
  7  8  1  0  0  0  0
  7  1  9  0  0  0  0
  8  2  1  0  0  0  0
  9 18  2  0  0  0  0
 10 12  2  0  0  0  0
 10  9  1  0  0  0  0
 11 10  1  0  0  0  0
 12 14  1  0  0  0  0
 13 12  1  0  0  0  0
 14 15  1  0  0  0  0
 14 16  2  0  0  0  0
 16 17  1  0  0  0  0
 18 16  1  0  0  0  0
 18 19  1  0  0  0  0
 20  7  2  0  0  0  0
 20  9  1  0  0  0  0
 21 20  1  0  0  0  0
 22 21  1  0  0  0  0
 23 21  2  0  0  0  0
 23  8  1  0  0  0  0
 24 23  1  0  0  0  0
 24 25  2  0  0  0  0
 25 26  1  0  0  0  0
 27 25  1  0  0  0  0
 27 28  1  0  0  0  0
 29 27  2  0  0  0  0
 30 29  1  0  0  0  0
 31 33  2  0  0  0  0
 31 29  1  0  0  0  0
 32 31  1  0  0  0  0
 33 24  1  0  0  0  0
 34 33  1  0  0  0  0
 35 36  1  0  0  0  0
 35  1  9  0  0  0  0
 36  2  1  0  0  0  0
 37 46  1  0  0  0  0
 37 48  1  0  0  0  0
 38 37  2  0  0  0  0
 39 38  1  0  0  0  0
 40 42  2  0  0  0  0
 40 38  1  0  0  0  0
 41 40  1  0  0  0  0
 42 44  1  0  0  0  0
 43 42  1  0  0  0  0
 44 45  1  0  0  0  0
 44 46  2  0  0  0  0
 46 47  1  0  0  0  0
 48 35  2  0  0  0  0
 49 48  1  0  0  0  0
 49 51  2  0  0  0  0
 50 49  1  0  0  0  0
 51 52  1  0  0  0  0
 51 36  1  0  0  0  0
 52 53  2  0  0  0  0
 53 55  1  0  0  0  0
 53 54  1  0  0  0  0
 55 56  1  0  0  0  0
 57 58  1  0  0  0  0
 57 55  2  0  0  0  0
 59 57  1  0  0  0  0
 60 59  1  0  0  0  0
 61 59  2  0  0  0  0
 61 52  1  0  0  0  0
 62 61  1  0  0  0  0
 63 64  1  0  0  0  0
 63 75  2  0  0  0  0
 63  1  9  0  0  0  0
 64 78  1  0  0  0  0
 65 66  2  0  0  0  0
 66 67  1  0  0  0  0
 66 68  1  0  0  0  0
 68 69  1  0  0  0  0
 70 68  2  0  0  0  0
 70 71  1  0  0  0  0
 72 70  1  0  0  0  0
 73 72  1  0  0  0  0
 74 65  1  0  0  0  0
 74 72  2  0  0  0  0
 75 76  1  0  0  0  0
 75 65  1  0  0  0  0
 76 77  1  0  0  0  0
 78 79  1  0  0  0  0
 78 76  2  0  0  0  0
 79 80  2  0  0  0  0
 80 82  1  0  0  0  0
 80 81  1  0  0  0  0
 82 83  1  0  0  0  0
 84 85  1  0  0  0  0
 84 82  2  0  0  0  0
 86 84  1  0  0  0  0
 87 86  1  0  0  0  0
 88 86  2  0  0  0  0
 88 79  1  0  0  0  0
 89 88  1  0  0  0  0
 90 74  1  0  0  0  0
 91 92  1  0  0  0  0
 92 95  1  0  0  0  0
 93 91  1  0  0  0  0
 94 92  2  0  0  0  0
 94 99  1  0  0  0  0
 96 93  1  0  0  0  0
 96 98  2  0  0  0  0
 97 93  1  0  0  0  0
 98 94  1  0  0  0  0
100 96  1  0  0  0  0
101 98  1  0  0  0  0
M  RAD  1  93   2
M  CHG  2   1   3   2  -1
M  END
$$$$
