
 OpenBabel02072512503D

104113  0  0  0  0  0  0  0  0999 V2000
    1.2414   -0.7137    0.0242 Fe  0  2  0  0  0  0  0  0  0  0  0  0
   -1.8225    0.2908   -0.1967 B   0  5  2  0  0  0  0  0  0  0  0  0
   -2.9539    0.6086   -0.2897 H   0  0  0  0  0  0  0  0  0  0  0  0
    2.2532    0.6765    1.2995 O   0  0  0  0  0  0  0  0  0  0  0  0
    3.2378    0.6662    0.4838 C   0  0  0  0  0  0  0  0  0  0  0  0
    3.1003   -0.0657   -0.5682 O   0  0  0  0  0  1  0  0  0  0  0  0
    0.3009    1.5222   -0.5834 N   0  0  0  0  0  0  0  0  0  0  0  0
   -0.9263    1.5723   -0.1039 N   0  0  0  0  0  0  0  0  0  0  0  0
    2.0865    3.1165   -1.1583 C   0  0  0  0  0  0  0  0  0  0  0  0
    2.8017    4.2730   -0.7552 C   0  0  0  0  0  0  0  0  0  0  0  0
    2.4109    4.8921    0.0461 H   0  0  0  0  0  0  0  0  0  0  0  0
    4.0104    4.5861   -1.3526 C   0  0  0  0  0  0  0  0  0  0  0  0
    4.5701    5.4563   -1.0264 H   0  0  0  0  0  0  0  0  0  0  0  0
    4.5152    3.7707   -2.3805 C   0  0  0  0  0  0  0  0  0  0  0  0
    5.4592    4.0249   -2.8529 H   0  0  0  0  0  0  0  0  0  0  0  0
    3.8084    2.6341   -2.8023 C   0  0  0  0  0  0  0  0  0  0  0  0
    4.2005    2.0183   -3.6052 H   0  0  0  0  0  0  0  0  0  0  0  0
    2.6145    2.2945   -2.1888 C   0  0  0  0  0  0  0  0  0  0  0  0
    2.0602    1.4178   -2.5005 H   0  0  0  0  0  0  0  0  0  0  0  0
    0.8022    2.8158   -0.5811 C   0  0  0  0  0  0  0  0  0  0  0  0
   -0.1630    3.6767   -0.0454 C   0  0  0  0  0  0  0  0  0  0  0  0
   -0.0839    4.7452    0.0831 H   0  0  0  0  0  0  0  0  0  0  0  0
   -1.2726    2.8943    0.2441 C   0  0  0  0  0  0  0  0  0  0  0  0
   -2.5710    3.3080    0.7382 C   0  0  0  0  0  0  0  0  0  0  0  0
   -3.0451    4.5983    0.3958 C   0  0  0  0  0  0  0  0  0  0  0  0
   -2.4541    5.2321   -0.2579 H   0  0  0  0  0  0  0  0  0  0  0  0
   -4.2816    5.0352    0.8494 C   0  0  0  0  0  0  0  0  0  0  0  0
   -4.6444    6.0185    0.5673 H   0  0  0  0  0  0  0  0  0  0  0  0
   -5.0650    4.2027    1.6610 C   0  0  0  0  0  0  0  0  0  0  0  0
   -6.0337    4.5457    2.0118 H   0  0  0  0  0  0  0  0  0  0  0  0
   -4.5986    2.9325    2.0246 C   0  0  0  0  0  0  0  0  0  0  0  0
   -5.1957    2.2881    2.6612 H   0  0  0  0  0  0  0  0  0  0  0  0
   -3.3649    2.4881    1.5706 C   0  0  0  0  0  0  0  0  0  0  0  0
   -2.9986    1.5238    1.8934 H   0  0  0  0  0  0  0  0  0  0  0  0
   -0.3682   -0.9039    1.4700 N   0  0  0  0  0  0  0  0  0  0  0  0
   -1.6145   -0.5773    1.0785 N   0  0  0  0  0  0  0  0  0  0  0  0
    0.6330   -2.3395    3.2350 C   0  0  0  0  0  0  0  0  0  0  0  0
    0.4458   -3.5761    3.9090 C   0  0  0  0  0  0  0  0  0  0  0  0
   -0.5232   -4.0632    3.8819 H   0  0  0  0  0  0  0  0  0  0  0  0
    1.5072   -4.1880    4.5498 C   0  0  0  0  0  0  0  0  0  0  0  0
    1.3673   -5.1453    5.0415 H   0  0  0  0  0  0  0  0  0  0  0  0
    2.7760   -3.5723    4.5605 C   0  0  0  0  0  0  0  0  0  0  0  0
    3.6034   -4.0553    5.0716 H   0  0  0  0  0  0  0  0  0  0  0  0
    2.9691   -2.3363    3.9267 C   0  0  0  0  0  0  0  0  0  0  0  0
    3.9413   -1.8549    3.9595 H   0  0  0  0  0  0  0  0  0  0  0  0
    1.9155   -1.7216    3.2688 C   0  0  0  0  0  0  0  0  0  0  0  0
    2.0512   -0.7513    2.8077 H   0  0  0  0  0  0  0  0  0  0  0  0
   -0.4872   -1.7397    2.5470 C   0  0  0  0  0  0  0  0  0  0  0  0
   -1.8598   -1.9205    2.8314 C   0  0  0  0  0  0  0  0  0  0  0  0
   -2.2912   -2.5030    3.6311 H   0  0  0  0  0  0  0  0  0  0  0  0
   -2.5581   -1.1797    1.8986 C   0  0  0  0  0  0  0  0  0  0  0  0
   -4.0101   -0.9756    1.8131 C   0  0  0  0  0  0  0  0  0  0  0  0
   -4.7161   -1.1068    0.6067 C   0  0  0  0  0  0  0  0  0  0  0  0
   -4.1965   -1.3837   -0.3013 H   0  0  0  0  0  0  0  0  0  0  0  0
   -6.0943   -0.9105    0.5745 C   0  0  0  0  0  0  0  0  0  0  0  0
   -6.6234   -1.0126   -0.3678 H   0  0  0  0  0  0  0  0  0  0  0  0
   -6.7859   -0.5940    1.7475 C   0  0  0  0  0  0  0  0  0  0  0  0
   -7.8610   -0.4435    1.7213 H   0  0  0  0  0  0  0  0  0  0  0  0
   -6.0948   -0.4849    2.9588 C   0  0  0  0  0  0  0  0  0  0  0  0
   -6.6308   -0.2534    3.8744 H   0  0  0  0  0  0  0  0  0  0  0  0
   -4.7144   -0.6756    2.9946 C   0  0  0  0  0  0  0  0  0  0  0  0
   -4.1741   -0.5747    3.9317 H   0  0  0  0  0  0  0  0  0  0  0  0
   -0.1609   -1.1448   -1.4467 N   0  0  0  0  0  2  0  0  0  0  0  0
   -1.3879   -0.5486   -1.4229 N   0  0  0  0  0  0  0  0  0  0  0  0
    0.9894   -2.8885   -2.7639 C   0  0  0  0  0  0  0  0  0  0  0  0
    0.8087   -4.2283   -3.1723 C   0  0  0  0  0  0  0  0  0  0  0  0
   -0.1945   -4.6387   -3.2351 H   0  0  0  0  0  0  0  0  0  0  0  0
    1.9098   -5.0290   -3.4446 C   0  0  0  0  0  0  0  0  0  0  0  0
    1.7675   -6.0642   -3.7380 H   0  0  0  0  0  0  0  0  0  0  0  0
    3.2070   -4.5036   -3.3335 C   0  0  0  0  0  0  0  0  0  0  0  0
    4.0652   -5.1333   -3.5476 H   0  0  0  0  0  0  0  0  0  0  0  0
    3.3962   -3.1660   -2.9616 C   0  0  0  0  0  0  0  0  0  0  0  0
    4.3984   -2.7544   -2.8996 H   0  0  0  0  0  0  0  0  0  0  0  0
    2.2983   -2.3611   -2.6850 C   0  0  0  0  0  0  0  0  0  0  0  0
   -0.1746   -2.0798   -2.4313 C   0  3  0  0  0  0  0  0  0  0  0  0
   -1.4422   -2.0804   -3.0420 C   0  0  0  0  0  0  0  0  0  0  0  0
   -1.7457   -2.6548   -3.9042 H   0  0  0  0  0  0  0  0  0  0  0  0
   -2.1833   -1.0920   -2.4079 C   0  0  0  0  0  0  0  0  0  0  0  0
   -3.5449   -0.6448   -2.7176 C   0  0  0  0  0  0  0  0  0  0  0  0
   -4.5200   -1.6059   -3.0407 C   0  0  0  0  0  0  0  0  0  0  0  0
   -4.2596   -2.6604   -3.0273 H   0  0  0  0  0  0  0  0  0  0  0  0
   -5.8208   -1.2113   -3.3489 C   0  0  0  0  0  0  0  0  0  0  0  0
   -6.5676   -1.9606   -3.5936 H   0  0  0  0  0  0  0  0  0  0  0  0
   -6.1597    0.1451   -3.3462 C   0  0  0  0  0  0  0  0  0  0  0  0
   -7.1719    0.4523   -3.5911 H   0  0  0  0  0  0  0  0  0  0  0  0
   -5.1912    1.1071   -3.0420 C   0  0  0  0  0  0  0  0  0  0  0  0
   -5.4483    2.1618   -3.0591 H   0  0  0  0  0  0  0  0  0  0  0  0
   -3.8907    0.7178   -2.7324 C   0  0  0  0  0  0  0  0  0  0  0  0
   -3.1354    1.4690   -2.5239 H   0  0  0  0  0  0  0  0  0  0  0  0
    2.4494   -1.3168   -2.4373 H   0  0  0  0  0  0  0  0  0  0  0  0
    4.4423    1.4711    0.7062 C   0  0  0  0  0  0  0  0  0  0  0  0
    5.5363    1.3558   -0.1647 C   0  0  0  0  0  0  0  0  0  0  0  0
    4.4797    2.3835    1.7763 C   0  0  0  0  0  0  0  0  0  0  0  0
    6.6590    2.1562    0.0299 C   0  0  0  0  0  0  0  0  0  0  0  0
    5.4904    0.6460   -0.9831 H   0  0  0  0  0  0  0  0  0  0  0  0
    5.6038    3.1833    1.9639 C   0  0  0  0  0  0  0  0  0  0  0  0
    3.6247    2.4554    2.4405 H   0  0  0  0  0  0  0  0  0  0  0  0
    6.6911    3.0710    1.0912 C   0  0  0  0  0  0  0  0  0  0  0  0
    7.5118    2.0674   -0.6362 H   0  0  0  0  0  0  0  0  0  0  0  0
    5.6376    3.8894    2.7879 H   0  0  0  0  0  0  0  0  0  0  0  0
    7.5699    3.6916    1.2406 H   0  0  0  0  0  0  0  0  0  0  0  0
    1.9020   -2.4577    0.4018 N   0  0  0  0  0  0  0  0  0  0  0  0
    3.0217   -2.9324    0.3745 N   0  3  0  0  0  0  0  0  0  0  0  0
    4.0626   -3.4149    0.3578 N   0  5  0  0  0  0  0  0  0  0  0  0
  1102  1  0  0  0  0
  2  3  1  6  0  0  0
  2  8  1  0  0  0  0
  2 36  1  0  0  0  0
  5 91  1  0  0  0  0
  5  4  2  0  0  0  0
  6  5  1  0  0  0  0
  7 20  2  0  0  0  0
  7  8  1  0  0  0  0
  7  1  9  0  0  0  0
  8 23  1  0  0  0  0
  9 10  1  0  0  0  0
  9 20  1  0  0  0  0
 10 11  1  0  0  0  0
 12 13  1  0  0  0  0
 12 10  2  0  0  0  0
 14 12  1  0  0  0  0
 15 14  1  0  0  0  0
 16 14  2  0  0  0  0
 16 18  1  0  0  0  0
 17 16  1  0  0  0  0
 18  9  2  0  0  0  0
 19 18  1  0  0  0  0
 20 21  1  0  0  0  0
 21 22  1  0  0  0  0
 21 23  2  0  0  0  0
 23 24  1  0  0  0  0
 24 33  1  0  0  0  0
 25 24  2  0  0  0  0
 25 27  1  0  0  0  0
 26 25  1  0  0  0  0
 27 29  2  0  0  0  0
 28 27  1  0  0  0  0
 29 30  1  0  0  0  0
 29 31  1  0  0  0  0
 31 32  1  0  0  0  0
 33 34  1  0  0  0  0
 33 31  2  0  0  0  0
 35 48  2  0  0  0  0
 35  1  9  0  0  0  0
 36 35  1  0  0  0  0
 36 51  1  0  0  0  0
 37 46  1  0  0  0  0
 37 38  2  0  0  0  0
 38 40  1  0  0  0  0
 39 38  1  0  0  0  0
 40 42  2  0  0  0  0
 40 41  1  0  0  0  0
 42 43  1  0  0  0  0
 44 45  1  0  0  0  0
 44 42  1  0  0  0  0
 46 44  2  0  0  0  0
 47 46  1  0  0  0  0
 48 49  1  0  0  0  0
 48 37  1  0  0  0  0
 49 50  1  0  0  0  0
 51 49  2  0  0  0  0
 52 51  1  0  0  0  0
 52 61  2  0  0  0  0
 53 52  1  0  0  0  0
 54 53  1  0  0  0  0
 55 53  2  0  0  0  0
 55 57  1  0  0  0  0
 56 55  1  0  0  0  0
 57 59  2  0  0  0  0
 58 57  1  0  0  0  0
 59 61  1  0  0  0  0
 59 60  1  0  0  0  0
 61 62  1  0  0  0  0
 63 64  1  0  0  0  0
 64  2  1  0  0  0  0
 65 74  2  0  0  0  0
 65 75  1  0  0  0  0
 66 65  1  0  0  0  0
 67 66  1  0  0  0  0
 68 70  1  0  0  0  0
 68 66  2  0  0  0  0
 69 68  1  0  0  0  0
 70 72  2  0  0  0  0
 71 70  1  0  0  0  0
 72 73  1  0  0  0  0
 72 74  1  0  0  0  0
 74 90  1  0  0  0  0
 75 63  1  0  0  0  0
 76 75  1  0  0  0  0
 76 78  2  0  0  0  0
 77 76  1  0  0  0  0
 78 64  1  0  0  0  0
 79 78  1  0  0  0  0
 80 81  1  0  0  0  0
 80 79  1  0  0  0  0
 82 84  1  0  0  0  0
 82 80  2  0  0  0  0
 83 82  1  0  0  0  0
 84 86  2  0  0  0  0
 85 84  1  0  0  0  0
 86 88  1  0  0  0  0
 87 86  1  0  0  0  0
 88 79  2  0  0  0  0
 88 89  1  0  0  0  0
 91 93  1  0  0  0  0
 92 94  1  0  0  0  0
 92 91  2  0  0  0  0
 93 96  2  0  0  0  0
 93 97  1  0  0  0  0
 94 98  2  0  0  0  0
 95 92  1  0  0  0  0
 96100  1  0  0  0  0
 98101  1  0  0  0  0
 98 96  1  0  0  0  0
 99 94  1  0  0  0  0
103102  2  0  0  0  0
104103  2  0  0  0  0
M  RAD  2   6   2  63   2
M  CHG  5   1   2   2  -1  75   1 103   1 104  -1
M  END
$$$$
