
 OpenBabel02052520093D

 61 66  0  0  0  0  0  0  0  0999 V2000
   -0.3942    0.1707   -0.1598 Fe  0  2  0  0  0  0  0  0  0  0  0  0
    1.1402    0.7892   -1.6373 N   0  0  1  0  0  0  0  0  0  0  0  0
   -0.3256   -1.7917   -1.2371 N   0  0  2  0  0  0  0  0  0  0  0  0
   -2.1081   -0.5156    1.1576 N   0  0  2  0  0  0  0  0  0  0  0  0
   -0.6734    2.0681    0.8913 N   0  0  2  0  0  0  0  0  0  0  0  0
    0.7550   -0.0956   -2.7826 C   0  0  0  0  0  0  0  0  0  0  0  0
    0.6605   -1.5527   -2.3478 C   0  0  0  0  0  0  0  0  0  0  0  0
   -1.7140   -1.9824   -1.7862 C   0  0  0  0  0  0  0  0  0  0  0  0
   -2.8259   -2.1220   -0.7349 C   0  0  0  0  0  0  0  0  0  0  0  0
   -3.1601   -0.9064    0.1433 C   0  0  0  0  0  0  0  0  0  0  0  0
   -2.5370    0.7268    1.8947 C   0  0  0  0  0  0  0  0  0  0  0  0
   -2.1420    2.0152    1.1868 C   0  0  0  0  0  0  0  0  0  0  0  0
   -0.4072    3.2243   -0.0306 C   0  0  0  0  0  0  0  0  0  0  0  0
    0.9229    3.1814   -0.7933 C   0  0  0  0  0  0  0  0  0  0  0  0
    0.9526    2.2319   -1.9983 C   0  0  0  0  0  0  0  0  0  0  0  0
    2.5260    0.5302   -1.1708 C   0  0  0  0  0  0  0  0  0  0  0  0
    0.1187   -3.0107   -0.5112 C   0  0  0  0  0  0  0  0  0  0  0  0
   -1.9715   -1.6043    2.1635 C   0  0  0  0  0  0  0  0  0  0  0  0
    0.1318    2.1970    2.1307 C   0  0  0  0  0  0  0  0  0  0  0  0
    1.4893   -0.0047   -3.5939 H   0  0  0  0  0  0  0  0  0  0  0  0
   -0.2055    0.2604   -3.1516 H   0  0  0  0  0  0  0  0  0  0  0  0
    1.6346   -1.8965   -1.9909 H   0  0  0  0  0  0  0  0  0  0  0  0
    0.4009   -2.1765   -3.2122 H   0  0  0  0  0  0  0  0  0  0  0  0
   -1.7088   -2.8871   -2.4093 H   0  0  0  0  0  0  0  0  0  0  0  0
   -1.9267   -1.1270   -2.4267 H   0  0  0  0  0  0  0  0  0  0  0  0
   -3.7400   -2.3267   -1.3052 H   0  0  0  0  0  0  0  0  0  0  0  0
   -2.6770   -3.0163   -0.1226 H   0  0  0  0  0  0  0  0  0  0  0  0
   -3.3407   -0.0377   -0.4876 H   0  0  0  0  0  0  0  0  0  0  0  0
   -4.0817   -1.1264    0.6985 H   0  0  0  0  0  0  0  0  0  0  0  0
   -3.6240    0.7138    2.0414 H   0  0  0  0  0  0  0  0  0  0  0  0
   -2.0865    0.6919    2.8881 H   0  0  0  0  0  0  0  0  0  0  0  0
   -2.4300    2.8725    1.8096 H   0  0  0  0  0  0  0  0  0  0  0  0
   -2.6604    2.0977    0.2323 H   0  0  0  0  0  0  0  0  0  0  0  0
   -0.4576    4.1434    0.5675 H   0  0  0  0  0  0  0  0  0  0  0  0
   -1.2248    3.2498   -0.7522 H   0  0  0  0  0  0  0  0  0  0  0  0
    1.7650    2.9989   -0.1152 H   0  0  0  0  0  0  0  0  0  0  0  0
    1.0848    4.1918   -1.1854 H   0  0  0  0  0  0  0  0  0  0  0  0
    0.0080    2.3037   -2.5380 H   0  0  0  0  0  0  0  0  0  0  0  0
    1.7571    2.5210   -2.6871 H   0  0  0  0  0  0  0  0  0  0  0  0
    3.0962    0.0028   -1.9448 H   0  0  0  0  0  0  0  0  0  0  0  0
    3.0388    1.4863   -1.0269 H   0  0  0  0  0  0  0  0  0  0  0  0
    0.1930   -3.8594   -1.2029 H   0  0  0  0  0  0  0  0  0  0  0  0
   -0.5868   -3.2731    0.2723 H   0  0  0  0  0  0  0  0  0  0  0  0
    1.0939   -2.8336   -0.0574 H   0  0  0  0  0  0  0  0  0  0  0  0
   -2.9507   -1.8520    2.5925 H   0  0  0  0  0  0  0  0  0  0  0  0
   -1.3224   -1.2813    2.9779 H   0  0  0  0  0  0  0  0  0  0  0  0
   -1.5506   -2.5009    1.7165 H   0  0  0  0  0  0  0  0  0  0  0  0
   -0.1578    3.0957    2.6893 H   0  0  0  0  0  0  0  0  0  0  0  0
    1.1893    2.2586    1.8748 H   0  0  0  0  0  0  0  0  0  0  0  0
    2.5954   -0.2325    0.1316 C   0  0  0  0  0  0  0  0  0  0  0  0
    1.5169   -1.0031    2.0403 C   0  0  0  0  0  0  0  0  0  0  0  0
    3.8184   -0.7178    0.5998 C   0  0  0  0  0  0  0  0  0  0  0  0
    2.6949   -1.4995    2.5755 C   0  0  0  0  0  0  0  0  0  0  0  0
    0.5803   -1.1017    2.5703 H   0  0  0  0  0  0  0  0  0  0  0  0
    3.8734   -1.3585    1.8349 C   0  0  0  0  0  0  0  0  0  0  0  0
    4.7146   -0.5851    0.0012 H   0  0  0  0  0  0  0  0  0  0  0  0
    2.6889   -1.9875    3.5440 H   0  0  0  0  0  0  0  0  0  0  0  0
    4.8160   -1.7398    2.2154 H   0  0  0  0  0  0  0  0  0  0  0  0
   -0.0073    1.3223    2.7664 H   0  0  0  0  0  0  0  0  0  0  0  0
    1.4563   -0.3823    0.8400 N   0  0  0  0  0  0  0  0  0  0  0  0
   -1.5378    0.8514   -1.3852 F   0  0  0  0  0  0  0  0  0  0  0  0
  2  6  1  6  0  0  0
  2 16  1  0  0  0  0
  2  1  9  0  0  0  0
  3 17  1  1  0  0  0
  3  1  9  0  0  0  0
  4 11  1  0  0  0  0
  4 18  1  1  0  0  0
  4  1  9  0  0  0  0
  5 12  1  0  0  0  0
  5 19  1  1  0  0  0
  5  1  9  0  0  0  0
  6  7  1  0  0  0  0
  7 22  1  0  0  0  0
  7  3  1  0  0  0  0
  8  3  1  0  0  0  0
  8  9  1  0  0  0  0
  9 27  1  0  0  0  0
  9 10  1  0  0  0  0
 10 29  1  0  0  0  0
 10  4  1  0  0  0  0
 11 30  1  0  0  0  0
 11 31  1  0  0  0  0
 12 32  1  0  0  0  0
 12 11  1  0  0  0  0
 13 34  1  0  0  0  0
 13  5  1  0  0  0  0
 14 36  1  0  0  0  0
 14 13  1  0  0  0  0
 15  2  1  0  0  0  0
 15 14  1  0  0  0  0
 16 41  1  0  0  0  0
 16 50  1  0  0  0  0
 17 44  1  0  0  0  0
 17 43  1  0  0  0  0
 18 45  1  0  0  0  0
 18 46  1  0  0  0  0
 19 48  1  0  0  0  0
 19 59  1  0  0  0  0
 20  6  1  0  0  0  0
 21  6  1  0  0  0  0
 23  7  1  0  0  0  0
 24  8  1  0  0  0  0
 25  8  1  0  0  0  0
 26  9  1  0  0  0  0
 28 10  1  0  0  0  0
 33 12  1  0  0  0  0
 35 13  1  0  0  0  0
 37 14  1  0  0  0  0
 38 15  1  0  0  0  0
 39 15  1  0  0  0  0
 40 16  1  0  0  0  0
 42 17  1  0  0  0  0
 47 18  1  0  0  0  0
 49 19  1  0  0  0  0
 50 52  2  0  0  0  0
 50 60  1  0  0  0  0
 51 54  1  0  0  0  0
 51 53  1  0  0  0  0
 52 55  1  0  0  0  0
 53 57  1  0  0  0  0
 55 58  1  0  0  0  0
 55 53  2  0  0  0  0
 56 52  1  0  0  0  0
 60 51  2  0  0  0  0
 60  1  9  0  0  0  0
 61  1  1  0  0  0  0
M  CHG  1   1   2
M  END
$$$$
