
 OpenBabel02052520093D

 63 68  0  0  0  0  0  0  0  0999 V2000
    0.1253    0.0966    0.0963 Fe  0  2  0  0  0  0  0  0  0  0  0  0
   -0.2763   -1.8297   -0.9302 N   0  0  1  0  0  0  0  0  0  0  0  0
   -0.2635    0.9868   -1.9252 N   0  0  2  0  0  0  0  0  0  0  0  0
    0.5689    2.1318    1.0341 N   0  0  2  0  0  0  0  0  0  0  0  0
    0.5051   -0.6247    2.1305 N   0  0  2  0  0  0  0  0  0  0  0  0
    0.2145   -1.4972   -2.3063 C   0  0  0  0  0  0  0  0  0  0  0  0
   -0.4184   -0.2079   -2.8311 C   0  0  0  0  0  0  0  0  0  0  0  0
    0.9765    1.7718   -2.2587 C   0  0  0  0  0  0  0  0  0  0  0  0
    1.3008    2.9435   -1.3121 C   0  0  0  0  0  0  0  0  0  0  0  0
    1.6742    2.6739    0.1577 C   0  0  0  0  0  0  0  0  0  0  0  0
    1.0884    1.8089    2.4149 C   0  0  0  0  0  0  0  0  0  0  0  0
    1.5313    0.3583    2.6076 C   0  0  0  0  0  0  0  0  0  0  0  0
    1.1008   -2.0043    2.0876 C   0  0  0  0  0  0  0  0  0  0  0  0
    0.3504   -3.0341    1.2275 C   0  0  0  0  0  0  0  0  0  0  0  0
    0.5292   -2.9256   -0.2964 C   0  0  0  0  0  0  0  0  0  0  0  0
   -1.7162   -2.1983   -0.9488 C   0  0  0  0  0  0  0  0  0  0  0  0
   -1.4614    1.8476   -2.1251 C   0  0  0  0  0  0  0  0  0  0  0  0
   -0.4590    3.1993    1.1894 C   0  0  0  0  0  0  0  0  0  0  0  0
   -0.6852   -0.6152    3.0175 C   0  0  0  0  0  0  0  0  0  0  0  0
   -0.0216   -2.3147   -3.0007 H   0  0  0  0  0  0  0  0  0  0  0  0
    1.2975   -1.4069   -2.2611 H   0  0  0  0  0  0  0  0  0  0  0  0
   -1.4908   -0.3649   -2.9688 H   0  0  0  0  0  0  0  0  0  0  0  0
   -0.0042    0.0192   -3.8210 H   0  0  0  0  0  0  0  0  0  0  0  0
    0.8549    2.1822   -3.2708 H   0  0  0  0  0  0  0  0  0  0  0  0
    1.8081    1.0694   -2.2862 H   0  0  0  0  0  0  0  0  0  0  0  0
    2.1836    3.4273   -1.7476 H   0  0  0  0  0  0  0  0  0  0  0  0
    0.5165    3.7042   -1.3687 H   0  0  0  0  0  0  0  0  0  0  0  0
    2.5084    1.9787    0.2159 H   0  0  0  0  0  0  0  0  0  0  0  0
    2.0056    3.6251    0.5962 H   0  0  0  0  0  0  0  0  0  0  0  0
    1.9275    2.4705    2.6614 H   0  0  0  0  0  0  0  0  0  0  0  0
    0.2926    2.0420    3.1239 H   0  0  0  0  0  0  0  0  0  0  0  0
    1.7394    0.1954    3.6738 H   0  0  0  0  0  0  0  0  0  0  0  0
    2.4502    0.1660    2.0579 H   0  0  0  0  0  0  0  0  0  0  0  0
    1.1588   -2.3758    3.1191 H   0  0  0  0  0  0  0  0  0  0  0  0
    2.1235   -1.9092    1.7205 H   0  0  0  0  0  0  0  0  0  0  0  0
   -0.7115   -3.0667    1.4978 H   0  0  0  0  0  0  0  0  0  0  0  0
    0.7477   -4.0144    1.5148 H   0  0  0  0  0  0  0  0  0  0  0  0
    1.5782   -2.7471   -0.5323 H   0  0  0  0  0  0  0  0  0  0  0  0
    0.2500   -3.8769   -0.7679 H   0  0  0  0  0  0  0  0  0  0  0  0
   -2.0208   -2.4876   -1.9615 H   0  0  0  0  0  0  0  0  0  0  0  0
   -1.8631   -3.0907   -0.3326 H   0  0  0  0  0  0  0  0  0  0  0  0
   -1.5296    2.1674   -3.1727 H   0  0  0  0  0  0  0  0  0  0  0  0
   -1.4056    2.7349   -1.4999 H   0  0  0  0  0  0  0  0  0  0  0  0
   -2.3636    1.2969   -1.8626 H   0  0  0  0  0  0  0  0  0  0  0  0
    0.0082    4.1344    1.5238 H   0  0  0  0  0  0  0  0  0  0  0  0
   -1.1920    2.9094    1.9415 H   0  0  0  0  0  0  0  0  0  0  0  0
   -0.9758    3.3845    0.2510 H   0  0  0  0  0  0  0  0  0  0  0  0
   -0.4017   -0.8670    4.0471 H   0  0  0  0  0  0  0  0  0  0  0  0
   -1.4178   -1.3374    2.6592 H   0  0  0  0  0  0  0  0  0  0  0  0
   -2.6311   -1.1227   -0.4190 C   0  0  0  0  0  0  0  0  0  0  0  0
   -2.9050    0.8070    0.8297 C   0  0  0  0  0  0  0  0  0  0  0  0
   -4.0120   -1.2313   -0.6004 C   0  0  0  0  0  0  0  0  0  0  0  0
   -4.2855    0.7603    0.7090 C   0  0  0  0  0  0  0  0  0  0  0  0
   -2.4291    1.6021    1.3820 H   0  0  0  0  0  0  0  0  0  0  0  0
   -4.8543   -0.2796   -0.0322 C   0  0  0  0  0  0  0  0  0  0  0  0
   -4.4156   -2.0606   -1.1736 H   0  0  0  0  0  0  0  0  0  0  0  0
   -4.8974    1.5223    1.1794 H   0  0  0  0  0  0  0  0  0  0  0  0
   -5.9301   -0.3480   -0.1602 H   0  0  0  0  0  0  0  0  0  0  0  0
   -1.1538    0.3685    3.0089 H   0  0  0  0  0  0  0  0  0  0  0  0
   -2.0777   -0.1066    0.2747 N   0  0  0  0  0  0  0  0  0  0  0  0
    1.9835   -0.2218   -0.2774 N   0  0  0  0  0  0  0  0  0  0  0  0
    3.1184   -0.5708   -0.4924 C   0  0  0  0  0  0  0  0  0  0  0  0
    4.6060   -1.0311   -0.7716 S   0  0  0  0  0  0  0  0  0  0  0  0
  2  6  1  6  0  0  0
  2 15  1  0  0  0  0
  2  1  9  0  0  0  0
  3 17  1  6  0  0  0
  3  1  9  0  0  0  0
  4 18  1  1  0  0  0
  4 11  1  0  0  0  0
  4  1  9  0  0  0  0
  5 12  1  0  0  0  0
  5 19  1  1  0  0  0
  5  1  9  0  0  0  0
  6 21  1  0  0  0  0
  7  6  1  0  0  0  0
  7  3  1  0  0  0  0
  8  3  1  0  0  0  0
  8  9  1  0  0  0  0
  9 10  1  0  0  0  0
 10 28  1  0  0  0  0
 10 29  1  0  0  0  0
 10  4  1  0  0  0  0
 11 12  1  0  0  0  0
 11 30  1  0  0  0  0
 11 31  1  0  0  0  0
 12 32  1  0  0  0  0
 13  5  1  0  0  0  0
 13 34  1  0  0  0  0
 14 36  1  0  0  0  0
 14 37  1  0  0  0  0
 14 13  1  0  0  0  0
 15 14  1  0  0  0  0
 16  2  1  0  0  0  0
 16 50  1  0  0  0  0
 16 41  1  0  0  0  0
 17 44  1  0  0  0  0
 17 43  1  0  0  0  0
 18 45  1  0  0  0  0
 18 46  1  0  0  0  0
 19 48  1  0  0  0  0
 20  6  1  0  0  0  0
 22  7  1  0  0  0  0
 23  7  1  0  0  0  0
 24  8  1  0  0  0  0
 25  8  1  0  0  0  0
 26  9  1  0  0  0  0
 27  9  1  0  0  0  0
 33 12  1  0  0  0  0
 35 13  1  0  0  0  0
 38 15  1  0  0  0  0
 39 15  1  0  0  0  0
 40 16  1  0  0  0  0
 42 17  1  0  0  0  0
 47 18  1  0  0  0  0
 49 19  1  0  0  0  0
 50 60  1  0  0  0  0
 51 54  1  0  0  0  0
 52 50  2  0  0  0  0
 52 55  1  0  0  0  0
 53 51  1  0  0  0  0
 53 57  1  0  0  0  0
 55 53  2  0  0  0  0
 56 52  1  0  0  0  0
 58 55  1  0  0  0  0
 59 19  1  0  0  0  0
 60 51  2  0  0  0  0
 60  1  9  0  0  0  0
 61  1  1  0  0  0  0
 62 61  2  0  0  0  0
 63 62  2  0  0  0  0
M  CHG  1   1   2
M  END
$$$$
