
 OpenBabel02052520093D

 62 67  0  0  0  0  0  0  0  0999 V2000
   -0.4370    0.1916   -0.2151 Fe  0  2  0  0  0  0  0  0  0  0  0  0
   -1.6396    0.8228   -1.4451 O   0  0  0  0  0  0  0  0  0  0  0  0
    1.1733    0.8698   -1.5988 N   0  0  1  0  0  0  0  0  0  0  0  0
   -0.2158   -1.7624   -1.2801 N   0  0  2  0  0  0  0  0  0  0  0  0
   -2.1155   -0.5910    1.1038 N   0  0  2  0  0  0  0  0  0  0  0  0
   -0.7455    2.0391    0.9307 N   0  0  2  0  0  0  0  0  0  0  0  0
    0.8510    0.0063   -2.7791 C   0  0  0  0  0  0  0  0  0  0  0  0
    0.7639   -1.4670   -2.3844 C   0  0  0  0  0  0  0  0  0  0  0  0
   -1.5859   -2.0520   -1.8344 C   0  0  0  0  0  0  0  0  0  0  0  0
   -2.6976   -2.2517   -0.7890 C   0  0  0  0  0  0  0  0  0  0  0  0
   -3.1303   -1.0622    0.0860 C   0  0  0  0  0  0  0  0  0  0  0  0
   -2.6223    0.6297    1.8314 C   0  0  0  0  0  0  0  0  0  0  0  0
   -2.2199    1.9551    1.1899 C   0  0  0  0  0  0  0  0  0  0  0  0
   -0.4528    3.2310    0.0676 C   0  0  0  0  0  0  0  0  0  0  0  0
    0.9008    3.2220   -0.6604 C   0  0  0  0  0  0  0  0  0  0  0  0
    1.0048    2.3253   -1.9050 C   0  0  0  0  0  0  0  0  0  0  0  0
    2.5454    0.6073   -1.0918 C   0  0  0  0  0  0  0  0  0  0  0  0
    0.2944   -2.9515   -0.5465 C   0  0  0  0  0  0  0  0  0  0  0  0
   -1.9328   -1.6663    2.1179 C   0  0  0  0  0  0  0  0  0  0  0  0
    0.0168    2.1331    2.1997 C   0  0  0  0  0  0  0  0  0  0  0  0
    1.6176    0.1230   -3.5570 H   0  0  0  0  0  0  0  0  0  0  0  0
   -0.0987    0.3465   -3.1870 H   0  0  0  0  0  0  0  0  0  0  0  0
    1.7438   -1.8086   -2.0423 H   0  0  0  0  0  0  0  0  0  0  0  0
    0.5148   -2.0629   -3.2711 H   0  0  0  0  0  0  0  0  0  0  0  0
   -1.5179   -2.9655   -2.4411 H   0  0  0  0  0  0  0  0  0  0  0  0
   -1.8466   -1.2217   -2.4892 H   0  0  0  0  0  0  0  0  0  0  0  0
   -3.5895   -2.5224   -1.3671 H   0  0  0  0  0  0  0  0  0  0  0  0
   -2.4937   -3.1313   -0.1709 H   0  0  0  0  0  0  0  0  0  0  0  0
   -3.3739   -0.2094   -0.5441 H   0  0  0  0  0  0  0  0  0  0  0  0
   -4.0338   -1.3569    0.6367 H   0  0  0  0  0  0  0  0  0  0  0  0
   -3.7156    0.5900    1.9071 H   0  0  0  0  0  0  0  0  0  0  0  0
   -2.2387    0.5847    2.8520 H   0  0  0  0  0  0  0  0  0  0  0  0
   -2.5333    2.7765    1.8483 H   0  0  0  0  0  0  0  0  0  0  0  0
   -2.7219    2.0723    0.2314 H   0  0  0  0  0  0  0  0  0  0  0  0
   -0.5135    4.1276    0.6983 H   0  0  0  0  0  0  0  0  0  0  0  0
   -1.2557    3.3041   -0.6684 H   0  0  0  0  0  0  0  0  0  0  0  0
    1.7170    3.0134    0.0406 H   0  0  0  0  0  0  0  0  0  0  0  0
    1.0718    4.2493   -1.0016 H   0  0  0  0  0  0  0  0  0  0  0  0
    0.1064    2.4347   -2.5149 H   0  0  0  0  0  0  0  0  0  0  0  0
    1.8480    2.6527   -2.5274 H   0  0  0  0  0  0  0  0  0  0  0  0
    3.1482    0.1139   -1.8633 H   0  0  0  0  0  0  0  0  0  0  0  0
    3.0432    1.5624   -0.8971 H   0  0  0  0  0  0  0  0  0  0  0  0
    0.3936   -3.8062   -1.2277 H   0  0  0  0  0  0  0  0  0  0  0  0
   -0.3864   -3.2306    0.2531 H   0  0  0  0  0  0  0  0  0  0  0  0
    1.2679   -2.7290   -0.1106 H   0  0  0  0  0  0  0  0  0  0  0  0
   -2.9042   -1.9811    2.5201 H   0  0  0  0  0  0  0  0  0  0  0  0
   -1.3326   -1.3005    2.9508 H   0  0  0  0  0  0  0  0  0  0  0  0
   -1.4380   -2.5324    1.6857 H   0  0  0  0  0  0  0  0  0  0  0  0
   -0.2949    3.0136    2.7754 H   0  0  0  0  0  0  0  0  0  0  0  0
    1.0828    2.2030    1.9848 H   0  0  0  0  0  0  0  0  0  0  0  0
    2.5769   -0.1949    0.1857 C   0  0  0  0  0  0  0  0  0  0  0  0
    1.4619   -0.9734    2.0604 C   0  0  0  0  0  0  0  0  0  0  0  0
    3.7835   -0.7205    0.6536 C   0  0  0  0  0  0  0  0  0  0  0  0
    2.6213   -1.5098    2.5998 C   0  0  0  0  0  0  0  0  0  0  0  0
    0.5207   -1.0587    2.5817 H   0  0  0  0  0  0  0  0  0  0  0  0
    3.8107   -1.3881    1.8752 C   0  0  0  0  0  0  0  0  0  0  0  0
    4.6885   -0.5969    0.0664 H   0  0  0  0  0  0  0  0  0  0  0  0
    2.5910   -2.0140    3.5596 H   0  0  0  0  0  0  0  0  0  0  0  0
    4.7389   -1.8021    2.2567 H   0  0  0  0  0  0  0  0  0  0  0  0
   -0.1437    1.2397    2.8025 H   0  0  0  0  0  0  0  0  0  0  0  0
    1.4243   -0.3303    0.8725 N   0  0  0  0  0  0  0  0  0  0  0  0
   -1.7684    1.5482   -2.0726 H   0  0  0  0  0  0  0  0  0  0  0  0
  2  1  1  0  0  0  0
  3  7  1  6  0  0  0
  3 17  1  0  0  0  0
  3  1  9  0  0  0  0
  4 18  1  1  0  0  0
  4  1  9  0  0  0  0
  5 12  1  0  0  0  0
  5 19  1  1  0  0  0
  5  1  9  0  0  0  0
  6 13  1  0  0  0  0
  6 20  1  1  0  0  0
  6  1  9  0  0  0  0
  7  8  1  0  0  0  0
  8 23  1  0  0  0  0
  8  4  1  0  0  0  0
  9  4  1  0  0  0  0
  9 10  1  0  0  0  0
 10 28  1  0  0  0  0
 10 11  1  0  0  0  0
 11 30  1  0  0  0  0
 11  5  1  0  0  0  0
 12 31  1  0  0  0  0
 12 32  1  0  0  0  0
 13 12  1  0  0  0  0
 13 33  1  0  0  0  0
 14 35  1  0  0  0  0
 14  6  1  0  0  0  0
 15 37  1  0  0  0  0
 15 14  1  0  0  0  0
 16  3  1  0  0  0  0
 16 15  1  0  0  0  0
 17 42  1  0  0  0  0
 17 51  1  0  0  0  0
 18 45  1  0  0  0  0
 18 44  1  0  0  0  0
 19 46  1  0  0  0  0
 19 47  1  0  0  0  0
 20 49  1  0  0  0  0
 20 60  1  0  0  0  0
 21  7  1  0  0  0  0
 22  7  1  0  0  0  0
 24  8  1  0  0  0  0
 25  9  1  0  0  0  0
 26  9  1  0  0  0  0
 27 10  1  0  0  0  0
 29 11  1  0  0  0  0
 34 13  1  0  0  0  0
 36 14  1  0  0  0  0
 38 15  1  0  0  0  0
 39 16  1  0  0  0  0
 40 16  1  0  0  0  0
 41 17  1  0  0  0  0
 43 18  1  0  0  0  0
 48 19  1  0  0  0  0
 50 20  1  0  0  0  0
 51 53  2  0  0  0  0
 51 61  1  0  0  0  0
 52 55  1  0  0  0  0
 52 54  1  0  0  0  0
 53 56  1  0  0  0  0
 54 58  1  0  0  0  0
 56 59  1  0  0  0  0
 56 54  2  0  0  0  0
 57 53  1  0  0  0  0
 61 52  2  0  0  0  0
 61  1  9  0  0  0  0
 62  2  1  0  0  0  0
M  CHG  1   1   2
M  END
$$$$
