
 OpenBabel02052520093D

 61 66  0  0  0  0  0  0  0  0999 V2000
    0.2377    0.0054    0.0640 Fe  0  2  0  0  0  0  0  0  0  0  0  0
   -0.6424   -1.5955   -1.2053 N   0  0  1  0  0  0  0  0  0  0  0  0
   -0.1960    1.2983   -1.7081 N   0  0  2  0  0  0  0  0  0  0  0  0
    1.1510    1.6957    1.2631 N   0  0  2  0  0  0  0  0  0  0  0  0
    0.6384   -1.1316    1.8827 N   0  0  2  0  0  0  0  0  0  0  0  0
   -0.2381   -1.1282   -2.5745 C   0  0  0  0  0  0  0  0  0  0  0  0
   -0.6174    0.3389   -2.8018 C   0  0  0  0  0  0  0  0  0  0  0  0
    1.0853    2.0176   -2.0576 C   0  0  0  0  0  0  0  0  0  0  0  0
    1.6535    2.9349   -0.9578 C   0  0  0  0  0  0  0  0  0  0  0  0
    2.1848    2.3361    0.3577 C   0  0  0  0  0  0  0  0  0  0  0  0
    1.8035    1.0387    2.4669 C   0  0  0  0  0  0  0  0  0  0  0  0
    1.8862   -0.4933    2.4209 C   0  0  0  0  0  0  0  0  0  0  0  0
    0.8905   -2.5870    1.5761 C   0  0  0  0  0  0  0  0  0  0  0  0
   -0.1318   -3.2650    0.6492 C   0  0  0  0  0  0  0  0  0  0  0  0
   -0.0495   -2.9341   -0.8515 C   0  0  0  0  0  0  0  0  0  0  0  0
   -2.1279   -1.6843   -1.1115 C   0  0  0  0  0  0  0  0  0  0  0  0
   -1.2814    2.3148   -1.5743 C   0  0  0  0  0  0  0  0  0  0  0  0
    0.2789    2.7891    1.7836 C   0  0  0  0  0  0  0  0  0  0  0  0
   -0.4590   -1.0148    2.8798 C   0  0  0  0  0  0  0  0  0  0  0  0
   -0.7346   -1.7394   -3.3397 H   0  0  0  0  0  0  0  0  0  0  0  0
    0.8328   -1.2761   -2.6778 H   0  0  0  0  0  0  0  0  0  0  0  0
   -1.7032    0.4181   -2.8882 H   0  0  0  0  0  0  0  0  0  0  0  0
   -0.2005    0.6683   -3.7600 H   0  0  0  0  0  0  0  0  0  0  0  0
    0.8849    2.6391   -2.9407 H   0  0  0  0  0  0  0  0  0  0  0  0
    1.8171    1.2648   -2.3420 H   0  0  0  0  0  0  0  0  0  0  0  0
    2.5229    3.4220   -1.4162 H   0  0  0  0  0  0  0  0  0  0  0  0
    0.9589    3.7544   -0.7496 H   0  0  0  0  0  0  0  0  0  0  0  0
    2.9501    1.5919    0.1559 H   0  0  0  0  0  0  0  0  0  0  0  0
    2.6543    3.1486    0.9278 H   0  0  0  0  0  0  0  0  0  0  0  0
    2.8156    1.4359    2.5957 H   0  0  0  0  0  0  0  0  0  0  0  0
    1.2369    1.3442    3.3475 H   0  0  0  0  0  0  0  0  0  0  0  0
    2.0761   -0.8593    3.4385 H   0  0  0  0  0  0  0  0  0  0  0  0
    2.7147   -0.8108    1.7946 H   0  0  0  0  0  0  0  0  0  0  0  0
    0.9122   -3.1243    2.5327 H   0  0  0  0  0  0  0  0  0  0  0  0
    1.8838   -2.6618    1.1339 H   0  0  0  0  0  0  0  0  0  0  0  0
   -1.1510   -3.1234    1.0283 H   0  0  0  0  0  0  0  0  0  0  0  0
    0.0567   -4.3412    0.7359 H   0  0  0  0  0  0  0  0  0  0  0  0
    0.9884   -2.9408   -1.1804 H   0  0  0  0  0  0  0  0  0  0  0  0
   -0.5814   -3.7028   -1.4264 H   0  0  0  0  0  0  0  0  0  0  0  0
   -2.5626   -1.7175   -2.1166 H   0  0  0  0  0  0  0  0  0  0  0  0
   -2.3974   -2.6366   -0.6453 H   0  0  0  0  0  0  0  0  0  0  0  0
   -1.3720    2.8882   -2.5050 H   0  0  0  0  0  0  0  0  0  0  0  0
   -1.0626    3.0058   -0.7647 H   0  0  0  0  0  0  0  0  0  0  0  0
   -2.2319    1.8289   -1.3666 H   0  0  0  0  0  0  0  0  0  0  0  0
    0.8933    3.5868    2.2186 H   0  0  0  0  0  0  0  0  0  0  0  0
   -0.3716    2.4092    2.5697 H   0  0  0  0  0  0  0  0  0  0  0  0
   -0.3318    3.2144    0.9909 H   0  0  0  0  0  0  0  0  0  0  0  0
   -0.1709   -1.5029    3.8186 H   0  0  0  0  0  0  0  0  0  0  0  0
   -1.3646   -1.4799    2.4946 H   0  0  0  0  0  0  0  0  0  0  0  0
   -2.7710   -0.5898   -0.3068 C   0  0  0  0  0  0  0  0  0  0  0  0
   -2.5815    1.0691    1.2918 C   0  0  0  0  0  0  0  0  0  0  0  0
   -4.1569   -0.4177   -0.3580 C   0  0  0  0  0  0  0  0  0  0  0  0
   -3.9503    1.2885    1.3123 C   0  0  0  0  0  0  0  0  0  0  0  0
   -1.9318    1.6444    1.9302 H   0  0  0  0  0  0  0  0  0  0  0  0
   -4.7601    0.5342    0.4586 C   0  0  0  0  0  0  0  0  0  0  0  0
   -4.7502   -1.0349   -1.0260 H   0  0  0  0  0  0  0  0  0  0  0  0
   -4.3682    2.0358    1.9780 H   0  0  0  0  0  0  0  0  0  0  0  0
   -5.8353    0.6819    0.4348 H   0  0  0  0  0  0  0  0  0  0  0  0
   -0.6726    0.0347    3.0800 H   0  0  0  0  0  0  0  0  0  0  0  0
   -1.9832    0.1554    0.4947 N   0  0  0  0  0  0  0  0  0  0  0  0
    2.5340   -0.7557   -0.8124 Br  0  0  0  0  0  0  0  0  0  0  0  0
  2  6  1  6  0  0  0
  2 16  1  0  0  0  0
  2 15  1  0  0  0  0
  2  1  9  0  0  0  0
  3 17  1  1  0  0  0
  3  1  9  0  0  0  0
  4 18  1  1  0  0  0
  4 11  1  0  0  0  0
  4  1  9  0  0  0  0
  5 12  1  0  0  0  0
  5 19  1  1  0  0  0
  5  1  9  0  0  0  0
  7  6  1  0  0  0  0
  7  3  1  0  0  0  0
  8  3  1  0  0  0  0
  8  9  1  0  0  0  0
  9 27  1  0  0  0  0
  9 10  1  0  0  0  0
 10 29  1  0  0  0  0
 10  4  1  0  0  0  0
 11 30  1  0  0  0  0
 11 31  1  0  0  0  0
 12 11  1  0  0  0  0
 12 32  1  0  0  0  0
 13  5  1  0  0  0  0
 13 34  1  0  0  0  0
 14 37  1  0  0  0  0
 14 36  1  0  0  0  0
 14 13  1  0  0  0  0
 15 14  1  0  0  0  0
 16 41  1  0  0  0  0
 16 50  1  0  0  0  0
 17 44  1  0  0  0  0
 17 43  1  0  0  0  0
 18 45  1  0  0  0  0
 18 46  1  0  0  0  0
 19 59  1  0  0  0  0
 19 48  1  0  0  0  0
 20  6  1  0  0  0  0
 21  6  1  0  0  0  0
 22  7  1  0  0  0  0
 23  7  1  0  0  0  0
 24  8  1  0  0  0  0
 25  8  1  0  0  0  0
 26  9  1  0  0  0  0
 28 10  1  0  0  0  0
 33 12  1  0  0  0  0
 35 13  1  0  0  0  0
 38 15  1  0  0  0  0
 39 15  1  0  0  0  0
 40 16  1  0  0  0  0
 42 17  1  0  0  0  0
 47 18  1  0  0  0  0
 49 19  1  0  0  0  0
 50 60  1  0  0  0  0
 51 53  1  0  0  0  0
 51 54  1  0  0  0  0
 52 50  2  0  0  0  0
 52 55  1  0  0  0  0
 53 57  1  0  0  0  0
 55 53  2  0  0  0  0
 56 52  1  0  0  0  0
 58 55  1  0  0  0  0
 60 51  2  0  0  0  0
 60  1  9  0  0  0  0
 61  1  1  0  0  0  0
M  CHG  1   1   2
M  END
$$$$
