
 OpenBabel02052520093D

 53 59  0  0  0  0  0  0  0  0999 V2000
   -1.1191    0.3749   -1.7808 N   0  0  2  0  0  0  0  0  0  0  0  0
    0.2546   -0.3708   -0.2479 Fe  0  2  0  0  0  0  0  0  0  0  0  0
   -1.6121   -1.2662    0.3752 N   0  0  0  0  0  0  0  0  0  0  0  0
    2.1026   -0.4441    0.7875 N   0  0  0  0  0  0  0  0  0  0  0  0
    1.5598    1.0955   -1.3859 N   0  0  1  0  0  0  0  0  0  0  0  0
   -0.2790    0.4959   -3.0113 C   0  0  0  0  0  0  0  0  0  0  0  0
    0.9880    1.3279   -2.7540 C   0  0  0  0  0  0  0  0  0  0  0  0
   -1.7226    1.6673   -1.3413 C   0  0  0  0  0  0  0  0  0  0  0  0
    1.7560    2.3919   -0.6788 C   0  0  0  0  0  0  0  0  0  0  0  0
   -0.6204    1.2943    0.8181 N   0  0  0  0  0  0  0  0  0  0  0  0
   -1.5978    1.9366    0.1473 C   0  0  0  0  0  0  0  0  0  0  0  0
   -2.4077    2.8811    0.7758 C   0  0  0  0  0  0  0  0  0  0  0  0
   -2.1930    3.1720    2.1239 C   0  0  0  0  0  0  0  0  0  0  0  0
   -1.1696    2.5117    2.8089 C   0  0  0  0  0  0  0  0  0  0  0  0
   -0.4097    1.5766    2.1174 C   0  0  0  0  0  0  0  0  0  0  0  0
    3.1664   -0.1466    0.0039 C   0  0  0  0  0  0  0  0  0  0  0  0
    4.4678   -0.3438    0.4543 C   0  0  0  0  0  0  0  0  0  0  0  0
    4.6745   -0.8793    1.7275 C   0  0  0  0  0  0  0  0  0  0  0  0
    3.5715   -1.1986    2.5234 C   0  0  0  0  0  0  0  0  0  0  0  0
    2.3007   -0.9660    2.0137 C   0  0  0  0  0  0  0  0  0  0  0  0
   -1.8709   -1.8120    1.5745 C   0  0  0  0  0  0  0  0  0  0  0  0
   -3.1136   -2.3513    1.8880 C   0  0  0  0  0  0  0  0  0  0  0  0
   -4.1211   -2.3048    0.9220 C   0  0  0  0  0  0  0  0  0  0  0  0
   -3.8496   -1.7299   -0.3216 C   0  0  0  0  0  0  0  0  0  0  0  0
   -2.5757   -1.2259   -0.5689 C   0  0  0  0  0  0  0  0  0  0  0  0
   -2.1515   -0.6954   -1.9186 C   0  0  0  0  0  0  0  0  0  0  0  0
    2.8497    0.3489   -1.3913 C   0  0  0  0  0  0  0  0  0  0  0  0
   -0.8540    0.9372   -3.8355 H   0  0  0  0  0  0  0  0  0  0  0  0
   -0.0017   -0.5193   -3.2941 H   0  0  0  0  0  0  0  0  0  0  0  0
    1.7274    1.0887   -3.5245 H   0  0  0  0  0  0  0  0  0  0  0  0
    0.7773    2.3952   -2.8512 H   0  0  0  0  0  0  0  0  0  0  0  0
   -2.7751    1.7090   -1.6417 H   0  0  0  0  0  0  0  0  0  0  0  0
   -1.2248    2.4823   -1.8755 H   0  0  0  0  0  0  0  0  0  0  0  0
    2.5085    2.9964   -1.2000 H   0  0  0  0  0  0  0  0  0  0  0  0
    2.0861    2.2083    0.3436 H   0  0  0  0  0  0  0  0  0  0  0  0
    0.8187    2.9444   -0.6428 H   0  0  0  0  0  0  0  0  0  0  0  0
   -3.1902    3.3851    0.2168 H   0  0  0  0  0  0  0  0  0  0  0  0
   -2.8139    3.9041    2.6309 H   0  0  0  0  0  0  0  0  0  0  0  0
   -0.9660    2.7146    3.8546 H   0  0  0  0  0  0  0  0  0  0  0  0
    0.3999    1.0368    2.5974 H   0  0  0  0  0  0  0  0  0  0  0  0
    5.3064   -0.0881   -0.1852 H   0  0  0  0  0  0  0  0  0  0  0  0
    5.6831   -1.0454    2.0928 H   0  0  0  0  0  0  0  0  0  0  0  0
    3.6913   -1.6212    3.5149 H   0  0  0  0  0  0  0  0  0  0  0  0
    1.4093   -1.2074    2.5852 H   0  0  0  0  0  0  0  0  0  0  0  0
   -1.0548   -1.8156    2.2907 H   0  0  0  0  0  0  0  0  0  0  0  0
   -3.2842   -2.7935    2.8633 H   0  0  0  0  0  0  0  0  0  0  0  0
   -5.1055   -2.7107    1.1331 H   0  0  0  0  0  0  0  0  0  0  0  0
   -4.6116   -1.6838   -1.0931 H   0  0  0  0  0  0  0  0  0  0  0  0
   -1.6966   -1.5202   -2.4750 H   0  0  0  0  0  0  0  0  0  0  0  0
   -3.0100   -0.3325   -2.4956 H   0  0  0  0  0  0  0  0  0  0  0  0
    3.6609    0.9804   -1.7749 H   0  0  0  0  0  0  0  0  0  0  0  0
    2.7430   -0.5150   -2.0539 H   0  0  0  0  0  0  0  0  0  0  0  0
    0.7708   -2.2711   -1.3531 Cl  0  0  0  0  0  0  0  0  0  0  0  0
  1  6  1  6  0  0  0
  1  8  1  0  0  0  0
  1  2  9  0  0  0  0
  3 21  1  0  0  0  0
  3  2  9  0  0  0  0
  4 20  1  0  0  0  0
  4  2  9  0  0  0  0
  5  9  1  1  0  0  0
  5  2  9  0  0  0  0
  6  7  1  0  0  0  0
  7  5  1  0  0  0  0
  8 11  1  0  0  0  0
  9 36  1  0  0  0  0
  9 35  1  0  0  0  0
 10 15  1  0  0  0  0
 10  2  9  0  0  0  0
 11 12  1  0  0  0  0
 11 10  2  0  0  0  0
 12 13  2  0  0  0  0
 13 38  1  0  0  0  0
 13 14  1  0  0  0  0
 14 39  1  0  0  0  0
 15 40  1  0  0  0  0
 15 14  2  0  0  0  0
 16 17  1  0  0  0  0
 16  4  2  0  0  0  0
 17 18  2  0  0  0  0
 18 42  1  0  0  0  0
 18 19  1  0  0  0  0
 19 43  1  0  0  0  0
 20 19  2  0  0  0  0
 20 44  1  0  0  0  0
 21 22  2  0  0  0  0
 21 45  1  0  0  0  0
 22 46  1  0  0  0  0
 23 47  1  0  0  0  0
 23 22  1  0  0  0  0
 24 23  2  0  0  0  0
 25 24  1  0  0  0  0
 25  3  2  0  0  0  0
 26  1  1  0  0  0  0
 26 25  1  0  0  0  0
 27  5  1  0  0  0  0
 27 16  1  0  0  0  0
 28  6  1  0  0  0  0
 29  6  1  0  0  0  0
 30  7  1  0  0  0  0
 31  7  1  0  0  0  0
 32  8  1  0  0  0  0
 33  8  1  0  0  0  0
 34  9  1  0  0  0  0
 37 12  1  0  0  0  0
 41 17  1  0  0  0  0
 48 24  1  0  0  0  0
 49 26  1  0  0  0  0
 50 26  1  0  0  0  0
 51 27  1  0  0  0  0
 52 27  1  0  0  0  0
 53  2  1  0  0  0  0
M  CHG  1   2   2
M  END
$$$$
