
 OpenBabel02052520093D

 53 59  0  0  0  0  0  0  0  0999 V2000
    0.0876   -0.0310   -0.5217 Fe  0  2  0  0  0  0  0  0  0  0  0  0
    0.5935   -2.0751    0.2165 N   0  0  1  0  0  0  0  0  0  0  0  0
   -1.8295   -1.0009   -0.4552 N   0  0  0  0  0  0  0  0  0  0  0  0
   -0.6326    1.9379   -0.3378 N   0  0  0  0  0  0  0  0  0  0  0  0
    2.2149    0.0132   -0.3940 N   0  0  0  0  0  0  0  0  0  0  0  0
   -0.0594    0.3291    1.7563 N   0  0  1  0  0  0  0  0  0  0  0  0
    0.6866   -2.0256    1.7132 C   0  0  0  0  0  0  0  0  0  0  0  0
   -0.2861   -1.0215    2.3321 C   0  0  0  0  0  0  0  0  0  0  0  0
    1.1384    0.9777    2.3497 C   0  0  0  0  0  0  0  0  0  0  0  0
   -0.5915    2.7973   -1.3787 C   0  0  0  0  0  0  0  0  0  0  0  0
   -1.1533    2.3245    0.8506 C   0  0  0  0  0  0  0  0  0  0  0  0
   -1.0607    4.1007   -1.2619 C   0  0  0  0  0  0  0  0  0  0  0  0
   -1.6365    3.6146    1.0345 C   0  0  0  0  0  0  0  0  0  0  0  0
   -1.5877    4.5146   -0.0355 C   0  0  0  0  0  0  0  0  0  0  0  0
   -1.2217    1.2392    1.9045 C   0  0  0  0  0  0  0  0  0  0  0  0
   -1.8268   -2.3406   -0.2991 C   0  0  0  0  0  0  0  0  0  0  0  0
   -2.9983   -0.3556   -0.6434 C   0  0  0  0  0  0  0  0  0  0  0  0
   -3.0109   -3.0737   -0.2775 C   0  0  0  0  0  0  0  0  0  0  0  0
   -4.2172   -1.0214   -0.6507 C   0  0  0  0  0  0  0  0  0  0  0  0
   -4.2233   -2.4051   -0.4539 C   0  0  0  0  0  0  0  0  0  0  0  0
   -0.4679   -3.0012   -0.2636 C   0  0  0  0  0  0  0  0  0  0  0  0
    2.9450    1.1409   -0.4736 C   0  0  0  0  0  0  0  0  0  0  0  0
    4.3343    1.1195   -0.4733 C   0  0  0  0  0  0  0  0  0  0  0  0
    4.9812   -0.1158   -0.3811 C   0  0  0  0  0  0  0  0  0  0  0  0
    4.2195   -1.2845   -0.3083 C   0  0  0  0  0  0  0  0  0  0  0  0
    2.8312   -1.1855   -0.3333 C   0  0  0  0  0  0  0  0  0  0  0  0
    1.9195   -2.3908   -0.3872 C   0  0  0  0  0  0  0  0  0  0  0  0
    0.5105   -3.0239    2.1310 H   0  0  0  0  0  0  0  0  0  0  0  0
    1.7124   -1.7511    1.9661 H   0  0  0  0  0  0  0  0  0  0  0  0
   -0.1565   -1.0162    3.4227 H   0  0  0  0  0  0  0  0  0  0  0  0
   -1.3167   -1.3144    2.1252 H   0  0  0  0  0  0  0  0  0  0  0  0
    2.0206    0.3561    2.2077 H   0  0  0  0  0  0  0  0  0  0  0  0
    0.9900    1.1531    3.4227 H   0  0  0  0  0  0  0  0  0  0  0  0
    1.3139    1.9339    1.8533 H   0  0  0  0  0  0  0  0  0  0  0  0
   -0.1837    2.3967   -2.3009 H   0  0  0  0  0  0  0  0  0  0  0  0
   -1.0147    4.7715   -2.1128 H   0  0  0  0  0  0  0  0  0  0  0  0
   -2.0435    3.9116    1.9958 H   0  0  0  0  0  0  0  0  0  0  0  0
   -1.9580    5.5277    0.0889 H   0  0  0  0  0  0  0  0  0  0  0  0
   -1.2737    1.6707    2.9119 H   0  0  0  0  0  0  0  0  0  0  0  0
   -2.1363    0.6572    1.7505 H   0  0  0  0  0  0  0  0  0  0  0  0
   -2.9310    0.7160   -0.7937 H   0  0  0  0  0  0  0  0  0  0  0  0
   -2.9818   -4.1499   -0.1390 H   0  0  0  0  0  0  0  0  0  0  0  0
   -5.1369   -0.4687   -0.8078 H   0  0  0  0  0  0  0  0  0  0  0  0
   -5.1582   -2.9568   -0.4454 H   0  0  0  0  0  0  0  0  0  0  0  0
   -0.2214   -3.2882   -1.2916 H   0  0  0  0  0  0  0  0  0  0  0  0
   -0.4872   -3.9211    0.3332 H   0  0  0  0  0  0  0  0  0  0  0  0
    2.3845    2.0683   -0.5359 H   0  0  0  0  0  0  0  0  0  0  0  0
    4.8929    2.0465   -0.5418 H   0  0  0  0  0  0  0  0  0  0  0  0
    6.0654   -0.1695   -0.3694 H   0  0  0  0  0  0  0  0  0  0  0  0
    4.6951   -2.2580   -0.2456 H   0  0  0  0  0  0  0  0  0  0  0  0
    2.3779   -3.2633    0.0943 H   0  0  0  0  0  0  0  0  0  0  0  0
    1.7553   -2.6391   -1.4411 H   0  0  0  0  0  0  0  0  0  0  0  0
    0.1502   -0.0288   -2.2885 F   0  0  0  0  0  0  0  0  0  0  0  0
  2 27  1  6  0  0  0
  2  7  1  0  0  0  0
  2  1  9  0  0  0  0
  3 16  1  0  0  0  0
  3  1  9  0  0  0  0
  4 11  1  0  0  0  0
  4  1  9  0  0  0  0
  5 26  1  0  0  0  0
  5  1  9  0  0  0  0
  6 15  1  0  0  0  0
  6  8  1  0  0  0  0
  6  9  1  1  0  0  0
  6  1  9  0  0  0  0
  7 29  1  0  0  0  0
  7 28  1  0  0  0  0
  7  8  1  0  0  0  0
  8 30  1  0  0  0  0
  9 33  1  0  0  0  0
 10 12  1  0  0  0  0
 10  4  2  0  0  0  0
 11 13  2  0  0  0  0
 11 15  1  0  0  0  0
 12 14  2  0  0  0  0
 13 37  1  0  0  0  0
 14 38  1  0  0  0  0
 14 13  1  0  0  0  0
 15 39  1  0  0  0  0
 16 18  2  0  0  0  0
 16 21  1  0  0  0  0
 17  3  2  0  0  0  0
 18 42  1  0  0  0  0
 19 17  1  0  0  0  0
 19 20  2  0  0  0  0
 20 44  1  0  0  0  0
 20 18  1  0  0  0  0
 21  2  1  0  0  0  0
 21 46  1  0  0  0  0
 22 23  1  0  0  0  0
 22  5  2  0  0  0  0
 23 24  2  0  0  0  0
 24 49  1  0  0  0  0
 24 25  1  0  0  0  0
 25 50  1  0  0  0  0
 26 25  2  0  0  0  0
 27 26  1  0  0  0  0
 27 51  1  0  0  0  0
 31  8  1  0  0  0  0
 32  9  1  0  0  0  0
 34  9  1  0  0  0  0
 35 10  1  0  0  0  0
 36 12  1  0  0  0  0
 40 15  1  0  0  0  0
 41 17  1  0  0  0  0
 43 19  1  0  0  0  0
 45 21  1  0  0  0  0
 47 22  1  0  0  0  0
 48 23  1  0  0  0  0
 52 27  1  0  0  0  0
 53  1  1  0  0  0  0
M  CHG  1   1   2
M  END
$$$$
