
 OpenBabel02072512503D

 55 61  0  0  0  0  0  0  0  0999 V2000
   -0.0785   -0.0192    0.3249 Fe  0  3  0  0  0 46  0  0  0  0  0  0
   -0.5526   -2.0188   -0.5574 N   0  0  1  0  0  0  0  0  0  0  0  0
    1.8762   -0.9775    0.2041 N   0  0  0  0  0  0  0  0  0  0  0  0
    0.6137    1.9934    0.2645 N   0  0  0  0  0  0  0  0  0  0  0  0
   -2.2288    0.0230    0.1278 N   0  0  0  0  0  0  0  0  0  0  0  0
    0.1216    0.4641   -1.9217 N   0  0  1  0  0  0  0  0  0  0  0  0
   -0.5988   -1.8933   -2.0497 C   0  0  0  0  0  0  0  0  0  0  0  0
    0.3751   -0.8422   -2.5805 C   0  0  0  0  0  0  0  0  0  0  0  0
   -1.0649    1.1394   -2.5070 C   0  0  0  0  0  0  0  0  0  0  0  0
    0.5239    2.8353    1.3157 C   0  0  0  0  0  0  0  0  0  0  0  0
    1.1736    2.4226   -0.8918 C   0  0  0  0  0  0  0  0  0  0  0  0
    0.9857    4.1447    1.2549 C   0  0  0  0  0  0  0  0  0  0  0  0
    1.6553    3.7211   -1.0232 C   0  0  0  0  0  0  0  0  0  0  0  0
    1.5618    4.5941    0.0641 C   0  0  0  0  0  0  0  0  0  0  0  0
    1.2797    1.3861   -1.9898 C   0  0  0  0  0  0  0  0  0  0  0  0
    1.8645   -2.3057   -0.0285 C   0  0  0  0  0  0  0  0  0  0  0  0
    3.0511   -0.3532    0.4148 C   0  0  0  0  0  0  0  0  0  0  0  0
    3.0438   -3.0442   -0.1027 C   0  3  0  0  0  0  0  0  0  0  0  0
    4.2672   -1.0247    0.3729 C   0  0  0  0  0  0  0  0  0  0  0  0
    4.2628   -2.3949    0.0989 C   0  0  0  0  0  3  0  0  0  0  0  0
    0.5010   -2.9580   -0.0931 C   0  0  0  0  0  0  0  0  0  0  0  0
   -2.9874    1.1292    0.2303 C   0  0  0  0  0  0  0  0  0  0  0  0
   -4.3745    1.0864    0.1480 C   0  0  0  0  0  0  0  0  0  0  0  0
   -4.9912   -0.1506   -0.0552 C   0  0  0  0  0  0  0  0  0  0  0  0
   -4.2021   -1.2988   -0.1536 C   0  0  0  0  0  0  0  0  0  0  0  0
   -2.8190   -1.1785   -0.0426 C   0  0  0  0  0  0  0  0  0  0  0  0
   -1.8932   -2.3757   -0.0187 C   0  0  0  0  0  0  0  0  0  0  0  0
   -0.3928   -2.8644   -2.5160 H   0  0  0  0  0  0  0  0  0  0  0  0
   -1.6201   -1.6203   -2.3222 H   0  0  0  0  0  0  0  0  0  0  0  0
    0.2682   -0.7653   -3.6710 H   0  0  0  0  0  0  0  0  0  0  0  0
    1.4043   -1.1382   -2.3724 H   0  0  0  0  0  0  0  0  0  0  0  0
   -1.9432    0.5006   -2.4348 H   0  0  0  0  0  0  0  0  0  0  0  0
   -0.8866    1.3879   -3.5611 H   0  0  0  0  0  0  0  0  0  0  0  0
   -1.2675    2.0582   -1.9539 H   0  0  0  0  0  0  0  0  0  0  0  0
    0.0727    2.4245    2.2122 H   0  0  0  0  0  0  0  0  0  0  0  0
    0.8951    4.7929    2.1197 H   0  0  0  0  0  0  0  0  0  0  0  0
    2.0931    4.0447   -1.9622 H   0  0  0  0  0  0  0  0  0  0  0  0
    1.9300    5.6120   -0.0198 H   0  0  0  0  0  0  0  0  0  0  0  0
    1.3579    1.8668   -2.9735 H   0  0  0  0  0  0  0  0  0  0  0  0
    2.1937    0.8030   -1.8397 H   0  0  0  0  0  0  0  0  0  0  0  0
    2.9931    0.7103    0.6215 H   0  0  0  0  0  0  0  0  0  0  0  0
    3.0063   -4.1102   -0.3040 H   0  0  0  0  0  0  0  0  0  0  0  0
    5.1920   -0.4864    0.5494 H   0  0  0  0  0  0  0  0  0  0  0  0
    5.1939   -2.9509    0.0490 H   0  0  0  0  0  0  0  0  0  0  0  0
    0.2429   -3.2678    0.9255 H   0  0  0  0  0  0  0  0  0  0  0  0
    0.5246   -3.8645   -0.7107 H   0  0  0  0  0  0  0  0  0  0  0  0
   -2.4518    2.0623    0.3757 H   0  0  0  0  0  0  0  0  0  0  0  0
   -4.9537    1.9990    0.2370 H   0  0  0  0  0  0  0  0  0  0  0  0
   -6.0716   -0.2215   -0.1345 H   0  0  0  0  0  0  0  0  0  0  0  0
   -4.6531   -2.2744   -0.3049 H   0  0  0  0  0  0  0  0  0  0  0  0
   -2.3284   -3.2259   -0.5586 H   0  0  0  0  0  0  0  0  0  0  0  0
   -1.7619   -2.6785    1.0254 H   0  0  0  0  0  0  0  0  0  0  0  0
   -0.1884   -0.2949    2.1666 N   0  0  0  0  0  0  0  0  0  0  0  0
   -0.2630   -0.5038    3.3578 N   0  3  0  0  0  0  0  0  0  0  0  0
   -0.3335   -0.7037    4.4863 N   0  5  0  0  0  0  0  0  0  0  0  0
  1 53  1  0  0  0  0
  2  7  1  6  0  0  0
  2 21  1  0  0  0  0
  2 27  1  0  0  0  0
  2  1  9  0  0  0  0
  3 17  1  0  0  0  0
  3  1  9  0  0  0  0
  4 10  1  0  0  0  0
  4  1  9  0  0  0  0
  5 22  1  0  0  0  0
  5  1  9  0  0  0  0
  6  9  1  6  0  0  0
  6  1  9  0  0  0  0
  8 31  1  0  0  0  0
  8  7  1  0  0  0  0
  8  6  1  0  0  0  0
  9 32  1  0  0  0  0
  9 34  1  0  0  0  0
 10 35  1  0  0  0  0
 11  4  2  0  0  0  0
 12 10  2  0  0  0  0
 12 36  1  0  0  0  0
 13 11  1  0  0  0  0
 13 14  2  0  0  0  0
 14 12  1  0  0  0  0
 15  6  1  0  0  0  0
 15 40  1  0  0  0  0
 15 11  1  0  0  0  0
 16  3  2  0  0  0  0
 17 41  1  0  0  0  0
 18 16  1  0  0  0  0
 18 20  1  0  0  0  0
 19 17  2  0  0  0  0
 19 43  1  0  0  0  0
 20 19  1  0  0  0  0
 21 16  1  0  0  0  0
 21 45  1  0  0  0  0
 22 47  1  0  0  0  0
 23 22  2  0  0  0  0
 23 48  1  0  0  0  0
 24 23  1  0  0  0  0
 25 24  2  0  0  0  0
 25 26  1  0  0  0  0
 26 27  1  0  0  0  0
 26  5  2  0  0  0  0
 27 52  1  0  0  0  0
 28  7  1  0  0  0  0
 29  7  1  0  0  0  0
 30  8  1  0  0  0  0
 33  9  1  0  0  0  0
 37 13  1  0  0  0  0
 38 14  1  0  0  0  0
 39 15  1  0  0  0  0
 42 18  1  0  0  0  0
 44 20  1  0  0  0  0
 46 21  1  0  0  0  0
 49 24  1  0  0  0  0
 50 25  1  0  0  0  0
 51 27  1  0  0  0  0
 53 54  2  0  0  0  0
 54 55  2  0  0  0  0
M  RAD  2   1   2  20   2
M  CHG  4   1   1  18   1  54   1  55  -1
M  END
$$$$
