
 OpenBabel02052520093D

 53 59  0  0  0  0  0  0  0  0999 V2000
    0.0663   -0.0101   -0.1888 Fe  0  2  0  0  0  0  0  0  0  0  0  0
    0.5197   -1.9946    0.7076 N   0  0  1  0  0  0  0  0  0  0  0  0
   -1.8736   -0.9283   -0.0902 N   0  0  0  0  0  0  0  0  0  0  0  0
   -0.5864    2.0032   -0.1914 N   0  0  0  0  0  0  0  0  0  0  0  0
    2.1865    0.0218   -0.0224 N   0  0  0  0  0  0  0  0  0  0  0  0
   -0.1340    0.5140    2.0343 N   0  0  1  0  0  0  0  0  0  0  0  0
    0.5608   -1.8481    2.1996 C   0  0  0  0  0  0  0  0  0  0  0  0
   -0.4062   -0.7808    2.7095 C   0  0  0  0  0  0  0  0  0  0  0  0
    1.0617    1.1840    2.6067 C   0  0  0  0  0  0  0  0  0  0  0  0
   -0.4768    2.8240   -1.2601 C   0  0  0  0  0  0  0  0  0  0  0  0
   -1.1493    2.4637    0.9543 C   0  0  0  0  0  0  0  0  0  0  0  0
   -0.9212    4.1404   -1.2242 C   0  0  0  0  0  0  0  0  0  0  0  0
   -1.6126    3.7704    1.0564 C   0  0  0  0  0  0  0  0  0  0  0  0
   -1.4990    4.6211   -0.0472 C   0  0  0  0  0  0  0  0  0  0  0  0
   -1.2807    1.4523    2.0725 C   0  0  0  0  0  0  0  0  0  0  0  0
   -1.8913   -2.2554    0.1519 C   0  0  0  0  0  0  0  0  0  0  0  0
   -3.0295   -0.2830   -0.3456 C   0  0  0  0  0  0  0  0  0  0  0  0
   -3.0854   -2.9710    0.1952 C   0  0  0  0  0  0  0  0  0  0  0  0
   -4.2565   -0.9333   -0.3359 C   0  0  0  0  0  0  0  0  0  0  0  0
   -4.2850   -2.3012   -0.0501 C   0  0  0  0  0  0  0  0  0  0  0  0
   -0.5425   -2.9291    0.2473 C   0  0  0  0  0  0  0  0  0  0  0  0
    2.9358    1.1302   -0.1714 C   0  0  0  0  0  0  0  0  0  0  0  0
    4.3234    1.0931   -0.1200 C   0  0  0  0  0  0  0  0  0  0  0  0
    4.9495   -0.1368    0.1001 C   0  0  0  0  0  0  0  0  0  0  0  0
    4.1688   -1.2857    0.2465 C   0  0  0  0  0  0  0  0  0  0  0  0
    2.7837   -1.1747    0.1646 C   0  0  0  0  0  0  0  0  0  0  0  0
    1.8607   -2.3714    0.1773 C   0  0  0  0  0  0  0  0  0  0  0  0
    0.3435   -2.8108    2.6771 H   0  0  0  0  0  0  0  0  0  0  0  0
    1.5837   -1.5813    2.4719 H   0  0  0  0  0  0  0  0  0  0  0  0
   -0.3051   -0.6873    3.7990 H   0  0  0  0  0  0  0  0  0  0  0  0
   -1.4371   -1.0680    2.4983 H   0  0  0  0  0  0  0  0  0  0  0  0
    1.9319    0.5334    2.5437 H   0  0  0  0  0  0  0  0  0  0  0  0
    0.8858    1.4503    3.6566 H   0  0  0  0  0  0  0  0  0  0  0  0
    1.2742    2.0917    2.0394 H   0  0  0  0  0  0  0  0  0  0  0  0
   -0.0304    2.3905   -2.1478 H   0  0  0  0  0  0  0  0  0  0  0  0
   -0.8161    4.7692   -2.1016 H   0  0  0  0  0  0  0  0  0  0  0  0
   -2.0528    4.1181    1.9856 H   0  0  0  0  0  0  0  0  0  0  0  0
   -1.8541    5.6453    0.0143 H   0  0  0  0  0  0  0  0  0  0  0  0
   -1.3587    1.9537    3.0454 H   0  0  0  0  0  0  0  0  0  0  0  0
   -2.2007    0.8777    1.9272 H   0  0  0  0  0  0  0  0  0  0  0  0
   -2.9448    0.7752   -0.5667 H   0  0  0  0  0  0  0  0  0  0  0  0
   -3.0731   -4.0363    0.4028 H   0  0  0  0  0  0  0  0  0  0  0  0
   -5.1652   -0.3812   -0.5492 H   0  0  0  0  0  0  0  0  0  0  0  0
   -5.2270   -2.8403   -0.0273 H   0  0  0  0  0  0  0  0  0  0  0  0
   -0.2784   -3.2567   -0.7639 H   0  0  0  0  0  0  0  0  0  0  0  0
   -0.5852   -3.8217    0.8830 H   0  0  0  0  0  0  0  0  0  0  0  0
    2.3919    2.0553   -0.3333 H   0  0  0  0  0  0  0  0  0  0  0  0
    4.8969    2.0046   -0.2479 H   0  0  0  0  0  0  0  0  0  0  0  0
    6.0319   -0.2017    0.1535 H   0  0  0  0  0  0  0  0  0  0  0  0
    4.6278   -2.2556    0.4094 H   0  0  0  0  0  0  0  0  0  0  0  0
    2.2917   -3.2057    0.7439 H   0  0  0  0  0  0  0  0  0  0  0  0
    1.7285   -2.6987   -0.8592 H   0  0  0  0  0  0  0  0  0  0  0  0
    0.2166   -0.4949   -2.5651 Br  0  0  0  0  0  0  0  0  0  0  0  0
  2 27  1  6  0  0  0
  2  7  1  0  0  0  0
  2  1  9  0  0  0  0
  3 16  1  0  0  0  0
  3  1  9  0  0  0  0
  4 11  1  0  0  0  0
  4  1  9  0  0  0  0
  5 26  1  0  0  0  0
  5  1  9  0  0  0  0
  6 15  1  0  0  0  0
  6  9  1  1  0  0  0
  6  8  1  0  0  0  0
  6  1  9  0  0  0  0
  7 29  1  0  0  0  0
  7 28  1  0  0  0  0
  7  8  1  0  0  0  0
  8 30  1  0  0  0  0
  9 33  1  0  0  0  0
 10 12  1  0  0  0  0
 10  4  2  0  0  0  0
 11 13  2  0  0  0  0
 11 15  1  0  0  0  0
 12 14  2  0  0  0  0
 13 37  1  0  0  0  0
 14 38  1  0  0  0  0
 14 13  1  0  0  0  0
 15 39  1  0  0  0  0
 16 18  2  0  0  0  0
 16 21  1  0  0  0  0
 17 19  1  0  0  0  0
 17  3  2  0  0  0  0
 18 42  1  0  0  0  0
 19 20  2  0  0  0  0
 20 44  1  0  0  0  0
 20 18  1  0  0  0  0
 21  2  1  0  0  0  0
 21 46  1  0  0  0  0
 22 23  1  0  0  0  0
 22  5  2  0  0  0  0
 23 24  2  0  0  0  0
 24 49  1  0  0  0  0
 24 25  1  0  0  0  0
 25 50  1  0  0  0  0
 26 27  1  0  0  0  0
 26 25  2  0  0  0  0
 27 51  1  0  0  0  0
 31  8  1  0  0  0  0
 32  9  1  0  0  0  0
 34  9  1  0  0  0  0
 35 10  1  0  0  0  0
 36 12  1  0  0  0  0
 40 15  1  0  0  0  0
 41 17  1  0  0  0  0
 43 19  1  0  0  0  0
 45 21  1  0  0  0  0
 47 22  1  0  0  0  0
 48 23  1  0  0  0  0
 52 27  1  0  0  0  0
 53  1  1  0  0  0  0
M  CHG  1   1   2
M  END
$$$$
