
 OpenBabel02052520093D

 53 59  0  0  0  0  0  0  0  0999 V2000
    0.0790   -0.0317   -0.4066 Fe  0  2  0  0  0  0  0  0  0  0  0  0
    0.5319   -2.0576    0.3779 N   0  0  1  0  0  0  0  0  0  0  0  0
   -1.8710   -0.9390   -0.3150 N   0  0  0  0  0  0  0  0  0  0  0  0
   -0.5692    1.9726   -0.2925 N   0  0  0  0  0  0  0  0  0  0  0  0
    2.2050   -0.0126   -0.2584 N   0  0  0  0  0  0  0  0  0  0  0  0
   -0.0820    0.3800    1.8483 N   0  0  1  0  0  0  0  0  0  0  0  0
    0.6000   -1.9923    1.8745 C   0  0  0  0  0  0  0  0  0  0  0  0
   -0.3510   -0.9479    2.4581 C   0  0  0  0  0  0  0  0  0  0  0  0
    1.1263    1.0126    2.4368 C   0  0  0  0  0  0  0  0  0  0  0  0
   -0.4796    2.8328   -1.3312 C   0  0  0  0  0  0  0  0  0  0  0  0
   -1.1064    2.3846    0.8829 C   0  0  0  0  0  0  0  0  0  0  0  0
   -0.9179    4.1480   -1.2317 C   0  0  0  0  0  0  0  0  0  0  0  0
   -1.5613    3.6875    1.0483 C   0  0  0  0  0  0  0  0  0  0  0  0
   -1.4667    4.5818   -0.0226 C   0  0  0  0  0  0  0  0  0  0  0  0
   -1.2216    1.3224    1.9551 C   0  0  0  0  0  0  0  0  0  0  0  0
   -1.8906   -2.2778   -0.1514 C   0  0  0  0  0  0  0  0  0  0  0  0
   -3.0267   -0.2761   -0.5191 C   0  0  0  0  0  0  0  0  0  0  0  0
   -3.0868   -2.9909   -0.1330 C   0  0  0  0  0  0  0  0  0  0  0  0
   -4.2562   -0.9219   -0.5307 C   0  0  0  0  0  0  0  0  0  0  0  0
   -4.2867   -2.3037   -0.3228 C   0  0  0  0  0  0  0  0  0  0  0  0
   -0.5431   -2.9601   -0.1163 C   0  0  0  0  0  0  0  0  0  0  0  0
    2.9601    1.0965   -0.3612 C   0  0  0  0  0  0  0  0  0  0  0  0
    4.3483    1.0452   -0.3446 C   0  0  0  0  0  0  0  0  0  0  0  0
    4.9675   -0.2004   -0.2109 C   0  0  0  0  0  0  0  0  0  0  0  0
    4.1798   -1.3500   -0.1149 C   0  0  0  0  0  0  0  0  0  0  0  0
    2.7943   -1.2229   -0.1586 C   0  0  0  0  0  0  0  0  0  0  0  0
    1.8600   -2.4101   -0.2008 C   0  0  0  0  0  0  0  0  0  0  0  0
    0.3838   -2.9781    2.3028 H   0  0  0  0  0  0  0  0  0  0  0  0
    1.6294   -1.7469    2.1425 H   0  0  0  0  0  0  0  0  0  0  0  0
   -0.2300   -0.9140    3.5490 H   0  0  0  0  0  0  0  0  0  0  0  0
   -1.3873   -1.2178    2.2501 H   0  0  0  0  0  0  0  0  0  0  0  0
    1.9918    0.3623    2.3256 H   0  0  0  0  0  0  0  0  0  0  0  0
    0.9680    1.2234    3.5020 H   0  0  0  0  0  0  0  0  0  0  0  0
    1.3349    1.9483    1.9154 H   0  0  0  0  0  0  0  0  0  0  0  0
   -0.0558    2.4301   -2.2446 H   0  0  0  0  0  0  0  0  0  0  0  0
   -0.8307    4.8122   -2.0846 H   0  0  0  0  0  0  0  0  0  0  0  0
   -1.9809    3.9989    1.9996 H   0  0  0  0  0  0  0  0  0  0  0  0
   -1.8154    5.6040    0.0884 H   0  0  0  0  0  0  0  0  0  0  0  0
   -1.2765    1.7772    2.9522 H   0  0  0  0  0  0  0  0  0  0  0  0
   -2.1486    0.7612    1.8012 H   0  0  0  0  0  0  0  0  0  0  0  0
   -2.9405    0.7927   -0.6799 H   0  0  0  0  0  0  0  0  0  0  0  0
   -3.0763   -4.0665    0.0121 H   0  0  0  0  0  0  0  0  0  0  0  0
   -5.1653   -0.3554   -0.7005 H   0  0  0  0  0  0  0  0  0  0  0  0
   -5.2306   -2.8399   -0.3179 H   0  0  0  0  0  0  0  0  0  0  0  0
   -0.2970   -3.2309   -1.1487 H   0  0  0  0  0  0  0  0  0  0  0  0
   -0.5785   -3.8870    0.4685 H   0  0  0  0  0  0  0  0  0  0  0  0
    2.4211    2.0337   -0.4556 H   0  0  0  0  0  0  0  0  0  0  0  0
    4.9274    1.9579   -0.4328 H   0  0  0  0  0  0  0  0  0  0  0  0
    6.0501   -0.2770   -0.1859 H   0  0  0  0  0  0  0  0  0  0  0  0
    4.6334   -2.3315   -0.0210 H   0  0  0  0  0  0  0  0  0  0  0  0
    2.2934   -3.2820    0.3041 H   0  0  0  0  0  0  0  0  0  0  0  0
    1.7042   -2.6704   -1.2527 H   0  0  0  0  0  0  0  0  0  0  0  0
    0.1923   -0.3545   -2.6162 Cl  0  0  0  0  0  0  0  0  0  0  0  0
  2 27  1  6  0  0  0
  2  7  1  0  0  0  0
  2  1  9  0  0  0  0
  3 16  1  0  0  0  0
  3  1  9  0  0  0  0
  4 11  1  0  0  0  0
  4  1  9  0  0  0  0
  5 26  1  0  0  0  0
  5  1  9  0  0  0  0
  6 15  1  0  0  0  0
  6  9  1  1  0  0  0
  6  8  1  0  0  0  0
  6  1  9  0  0  0  0
  7 29  1  0  0  0  0
  7 28  1  0  0  0  0
  7  8  1  0  0  0  0
  8 30  1  0  0  0  0
  9 33  1  0  0  0  0
 10 12  1  0  0  0  0
 10  4  2  0  0  0  0
 11 13  2  0  0  0  0
 11 15  1  0  0  0  0
 12 14  2  0  0  0  0
 13 37  1  0  0  0  0
 14 38  1  0  0  0  0
 14 13  1  0  0  0  0
 15 39  1  0  0  0  0
 16 18  2  0  0  0  0
 16 21  1  0  0  0  0
 17  3  2  0  0  0  0
 18 42  1  0  0  0  0
 19 17  1  0  0  0  0
 19 20  2  0  0  0  0
 20 44  1  0  0  0  0
 20 18  1  0  0  0  0
 21  2  1  0  0  0  0
 21 46  1  0  0  0  0
 22 23  1  0  0  0  0
 22  5  2  0  0  0  0
 23 24  2  0  0  0  0
 24 49  1  0  0  0  0
 24 25  1  0  0  0  0
 25 50  1  0  0  0  0
 26 25  2  0  0  0  0
 27 26  1  0  0  0  0
 27 51  1  0  0  0  0
 31  8  1  0  0  0  0
 32  9  1  0  0  0  0
 34  9  1  0  0  0  0
 35 10  1  0  0  0  0
 36 12  1  0  0  0  0
 40 15  1  0  0  0  0
 41 17  1  0  0  0  0
 43 19  1  0  0  0  0
 45 21  1  0  0  0  0
 47 22  1  0  0  0  0
 48 23  1  0  0  0  0
 52 27  1  0  0  0  0
 53  1  1  0  0  0  0
M  CHG  1   1   2
M  END
$$$$
