
 OpenBabel02052520093D

 49 52  0  0  0  0  0  0  0  0999 V2000
    3.0554   -2.5637    0.4202 C   0  0  0  0  0  0  0  0  0  0  0  0
    2.2409   -1.3124    0.3553 C   0  0  0  0  0  0  0  0  0  0  0  0
    2.8995   -0.0047    0.1272 C   0  0  0  0  0  0  0  0  0  0  0  0
    4.5397   -0.0055   -0.2922 Cl  0  0  0  0  0  0  0  0  0  0  0  0
    1.0009   -1.3708    0.5038 O   0  0  0  0  0  0  0  0  0  0  0  0
   -0.4330   -0.0101   -0.2147 Fe  0  2  0  0  0  0  0  0  0  0  0  0
   -1.3361   -0.0552    1.8213 N   0  0  2  0  0  0  0  0  0  0  0  0
   -0.3224    0.1450    2.8885 C   0  0  0  0  0  0  0  0  0  0  0  0
    1.0006    1.3692    0.4838 O   0  0  0  0  0  0  0  0  0  0  0  0
    2.2415    1.3050    0.3524 C   0  0  0  0  0  0  0  0  0  0  0  0
    3.0610    2.5526    0.4315 C   0  0  0  0  0  0  0  0  0  0  0  0
   -2.0344   -1.4058   -0.6043 N   0  0  2  0  0  0  0  0  0  0  0  0
   -1.4852   -2.6424   -1.2328 C   0  0  0  0  0  0  0  0  0  0  0  0
   -1.9649    1.4799   -0.5190 N   0  0  1  0  0  0  0  0  0  0  0  0
   -1.4906    2.5208   -1.4774 C   0  0  0  0  0  0  0  0  0  0  0  0
   -2.8696   -0.6234   -1.5705 C   0  0  0  0  0  0  0  0  0  0  0  0
   -3.1924    0.7767   -1.0356 C   0  0  0  0  0  0  0  0  0  0  0  0
   -2.7600   -1.7418    0.6671 C   0  0  0  0  0  0  0  0  0  0  0  0
   -1.8933   -1.4376    1.8862 C   0  0  0  0  0  0  0  0  0  0  0  0
   -2.1510    2.0812    0.8371 C   0  0  0  0  0  0  0  0  0  0  0  0
   -2.3878    1.0117    1.8994 C   0  0  0  0  0  0  0  0  0  0  0  0
    3.8888   -2.4685    1.1253 H   0  0  0  0  0  0  0  0  0  0  0  0
    3.4974   -2.7651   -0.5654 H   0  0  0  0  0  0  0  0  0  0  0  0
    2.4132   -3.3980    0.7047 H   0  0  0  0  0  0  0  0  0  0  0  0
    2.4195    3.3883    0.7137 H   0  0  0  0  0  0  0  0  0  0  0  0
    3.5141    2.7573   -0.5484 H   0  0  0  0  0  0  0  0  0  0  0  0
    3.8867    2.4502    1.1446 H   0  0  0  0  0  0  0  0  0  0  0  0
   -3.0299   -2.8020    0.6683 H   0  0  0  0  0  0  0  0  0  0  0  0
   -3.6981   -1.1870    0.6989 H   0  0  0  0  0  0  0  0  0  0  0  0
   -2.4692   -1.5853    2.8091 H   0  0  0  0  0  0  0  0  0  0  0  0
   -1.0375   -2.1182    1.9111 H   0  0  0  0  0  0  0  0  0  0  0  0
   -2.3769    1.4778    2.8896 H   0  0  0  0  0  0  0  0  0  0  0  0
   -3.3729    0.5577    1.7892 H   0  0  0  0  0  0  0  0  0  0  0  0
   -1.2309    2.6289    1.0589 H   0  0  0  0  0  0  0  0  0  0  0  0
   -2.9793    2.8009    0.8252 H   0  0  0  0  0  0  0  0  0  0  0  0
   -3.9344    0.7313   -0.2376 H   0  0  0  0  0  0  0  0  0  0  0  0
   -3.6399    1.3686   -1.8393 H   0  0  0  0  0  0  0  0  0  0  0  0
   -3.7994   -1.1624   -1.7925 H   0  0  0  0  0  0  0  0  0  0  0  0
   -2.2927   -0.5470   -2.4944 H   0  0  0  0  0  0  0  0  0  0  0  0
   -2.3001   -3.3221   -1.5066 H   0  0  0  0  0  0  0  0  0  0  0  0
   -0.8234   -3.1332   -0.5161 H   0  0  0  0  0  0  0  0  0  0  0  0
   -0.9119   -2.3774   -2.1203 H   0  0  0  0  0  0  0  0  0  0  0  0
   -0.7728    0.0073    3.8787 H   0  0  0  0  0  0  0  0  0  0  0  0
    0.0822    1.1553    2.8132 H   0  0  0  0  0  0  0  0  0  0  0  0
    0.4858   -0.5754    2.7597 H   0  0  0  0  0  0  0  0  0  0  0  0
   -2.1963    3.3591   -1.5014 H   0  0  0  0  0  0  0  0  0  0  0  0
   -1.3989    2.0823   -2.4703 H   0  0  0  0  0  0  0  0  0  0  0  0
   -0.5082    2.8745   -1.1592 H   0  0  0  0  0  0  0  0  0  0  0  0
    0.4899   -0.0212   -2.2687 Cl  0  0  0  0  0  0  0  0  0  0  0  0
  1 24  1  0  0  0  0
  1 22  1  0  0  0  0
  2  1  1  0  0  0  0
  2  5  1  0  0  0  0
  3 10  1  0  0  0  0
  3  2  2  0  0  0  0
  4  3  1  0  0  0  0
  6  5  1  0  0  0  0
  7 19  1  0  0  0  0
  7 21  1  0  0  0  0
  7  8  1  1  0  0  0
  7  6  9  0  0  0  0
  8 43  1  0  0  0  0
  9  6  9  0  0  0  0
 10 11  1  0  0  0  0
 10  9  2  0  0  0  0
 11 25  1  0  0  0  0
 11 27  1  0  0  0  0
 12 13  1  6  0  0  0
 12 18  1  0  0  0  0
 12  6  9  0  0  0  0
 13 41  1  0  0  0  0
 14 15  1  6  0  0  0
 14 20  1  0  0  0  0
 14  6  9  0  0  0  0
 15 48  1  0  0  0  0
 16 17  1  0  0  0  0
 16 12  1  0  0  0  0
 17 14  1  0  0  0  0
 17 36  1  0  0  0  0
 18 28  1  0  0  0  0
 18 29  1  0  0  0  0
 18 19  1  0  0  0  0
 19 31  1  0  0  0  0
 19 30  1  0  0  0  0
 20 34  1  0  0  0  0
 20 21  1  0  0  0  0
 21 32  1  0  0  0  0
 23  1  1  0  0  0  0
 26 11  1  0  0  0  0
 33 21  1  0  0  0  0
 35 20  1  0  0  0  0
 37 17  1  0  0  0  0
 38 16  1  0  0  0  0
 39 16  1  0  0  0  0
 40 13  1  0  0  0  0
 42 13  1  0  0  0  0
 44  8  1  0  0  0  0
 45  8  1  0  0  0  0
 46 15  1  0  0  0  0
 47 15  1  0  0  0  0
 49  6  1  0  0  0  0
M  CHG  1   6   2
M  END
$$$$
