
 OpenBabel02052520093D

 49 52  0  0  0  0  0  0  0  0999 V2000
    2.9779   -0.5401   -2.6104 C   0  0  0  0  0  0  0  0  0  0  0  0
    2.1675   -0.5329   -1.3551 C   0  0  0  0  0  0  0  0  0  0  0  0
    2.8350   -0.4367   -0.0364 C   0  0  0  0  0  0  0  0  0  0  0  0
    4.4955   -0.1049   -0.0085 Cl  0  0  0  0  0  0  0  0  0  0  0  0
    0.9211   -0.6151   -1.4206 O   0  0  0  0  0  0  0  0  0  0  0  0
   -0.4858    0.0379   -0.0085 Fe  0  2  0  0  0  0  0  0  0  0  0  0
   -1.4439   -1.9671   -0.2060 N   0  0  2  0  0  0  0  0  0  0  0  0
   -0.4625   -3.0760   -0.0928 C   0  0  0  0  0  0  0  0  0  0  0  0
    0.9196   -0.8062    1.3108 O   0  0  0  0  0  0  0  0  0  0  0  0
    2.1663   -0.7435    1.2506 C   0  0  0  0  0  0  0  0  0  0  0  0
    2.9806   -0.9845    2.4806 C   0  0  0  0  0  0  0  0  0  0  0  0
   -2.0808    0.5779   -1.3642 N   0  0  2  0  0  0  0  0  0  0  0  0
   -1.5380    1.2864   -2.5605 C   0  0  0  0  0  0  0  0  0  0  0  0
   -2.0080    0.2710    1.5084 N   0  0  1  0  0  0  0  0  0  0  0  0
   -1.5276    1.1266    2.6339 C   0  0  0  0  0  0  0  0  0  0  0  0
   -2.8964    1.4976   -0.5083 C   0  0  0  0  0  0  0  0  0  0  0  0
   -3.2251    0.8673    0.8503 C   0  0  0  0  0  0  0  0  0  0  0  0
   -2.8392   -0.6481   -1.7913 C   0  0  0  0  0  0  0  0  0  0  0  0
   -2.0041   -1.9084   -1.5869 C   0  0  0  0  0  0  0  0  0  0  0  0
   -2.2280   -1.1247    2.0010 C   0  0  0  0  0  0  0  0  0  0  0  0
   -2.4952   -2.0960    0.8554 C   0  0  0  0  0  0  0  0  0  0  0  0
    3.7797   -1.2860   -2.5720 H   0  0  0  0  0  0  0  0  0  0  0  0
    3.4627    0.4380   -2.7371 H   0  0  0  0  0  0  0  0  0  0  0  0
    2.3237   -0.7308   -3.4618 H   0  0  0  0  0  0  0  0  0  0  0  0
    2.3251   -1.3084    3.2899 H   0  0  0  0  0  0  0  0  0  0  0  0
    3.4859   -0.0537    2.7738 H   0  0  0  0  0  0  0  0  0  0  0  0
    3.7667   -1.7278    2.3071 H   0  0  0  0  0  0  0  0  0  0  0  0
   -3.1136   -0.5619   -2.8467 H   0  0  0  0  0  0  0  0  0  0  0  0
   -3.7757   -0.6987   -1.2353 H   0  0  0  0  0  0  0  0  0  0  0  0
   -2.6044   -2.8016   -1.8046 H   0  0  0  0  0  0  0  0  0  0  0  0
   -1.1504   -1.9021   -2.2705 H   0  0  0  0  0  0  0  0  0  0  0  0
   -2.5103   -3.1181    1.2466 H   0  0  0  0  0  0  0  0  0  0  0  0
   -3.4779   -1.9262    0.4150 H   0  0  0  0  0  0  0  0  0  0  0  0
   -1.3130   -1.4120    2.5263 H   0  0  0  0  0  0  0  0  0  0  0  0
   -3.0545   -1.1476    2.7227 H   0  0  0  0  0  0  0  0  0  0  0  0
   -3.9861    0.0927    0.7496 H   0  0  0  0  0  0  0  0  0  0  0  0
   -3.6521    1.6350    1.5018 H   0  0  0  0  0  0  0  0  0  0  0  0
   -3.8241    1.7751   -1.0248 H   0  0  0  0  0  0  0  0  0  0  0  0
   -2.3043    2.4040   -0.3667 H   0  0  0  0  0  0  0  0  0  0  0  0
   -2.3569    1.6098   -3.2130 H   0  0  0  0  0  0  0  0  0  0  0  0
   -0.8839    0.6016   -3.1044 H   0  0  0  0  0  0  0  0  0  0  0  0
   -0.9582    2.1523   -2.2435 H   0  0  0  0  0  0  0  0  0  0  0  0
   -0.9432   -4.0387   -0.3037 H   0  0  0  0  0  0  0  0  0  0  0  0
   -0.0536   -3.0908    0.9185 H   0  0  0  0  0  0  0  0  0  0  0  0
    0.3474   -2.9175   -0.8054 H   0  0  0  0  0  0  0  0  0  0  0  0
   -2.2382    1.0841    3.4674 H   0  0  0  0  0  0  0  0  0  0  0  0
   -1.4221    2.1542    2.2888 H   0  0  0  0  0  0  0  0  0  0  0  0
   -0.5515    0.7655    2.9629 H   0  0  0  0  0  0  0  0  0  0  0  0
    0.6122    2.2252    0.1519 Br  0  0  0  0  0  0  0  0  0  0  0  0
  1 22  1  0  0  0  0
  1  2  1  0  0  0  0
  2  3  2  0  0  0  0
  3  4  1  0  0  0  0
  3 10  1  0  0  0  0
  5  2  1  0  0  0  0
  5  6  1  0  0  0  0
  6 49  1  0  0  0  0
  7  8  1  1  0  0  0
  7 21  1  0  0  0  0
  7  6  9  0  0  0  0
  8 44  1  0  0  0  0
  9  6  9  0  0  0  0
 10  9  2  0  0  0  0
 10 11  1  0  0  0  0
 11 26  1  0  0  0  0
 11 25  1  0  0  0  0
 12 13  1  6  0  0  0
 12 16  1  0  0  0  0
 12  6  9  0  0  0  0
 13 42  1  0  0  0  0
 14 20  1  0  0  0  0
 14 15  1  1  0  0  0
 14  6  9  0  0  0  0
 15 48  1  0  0  0  0
 15 46  1  0  0  0  0
 16 39  1  0  0  0  0
 16 17  1  0  0  0  0
 17 37  1  0  0  0  0
 17 14  1  0  0  0  0
 18 19  1  0  0  0  0
 18 12  1  0  0  0  0
 18 29  1  0  0  0  0
 19  7  1  0  0  0  0
 20 34  1  0  0  0  0
 20 35  1  0  0  0  0
 21 32  1  0  0  0  0
 21 20  1  0  0  0  0
 23  1  1  0  0  0  0
 24  1  1  0  0  0  0
 27 11  1  0  0  0  0
 28 18  1  0  0  0  0
 30 19  1  0  0  0  0
 31 19  1  0  0  0  0
 33 21  1  0  0  0  0
 36 17  1  0  0  0  0
 38 16  1  0  0  0  0
 40 13  1  0  0  0  0
 41 13  1  0  0  0  0
 43  8  1  0  0  0  0
 45  8  1  0  0  0  0
 47 15  1  0  0  0  0
M  CHG  1   6   2
M  END
$$$$
