
 OpenBabel02052520093D

 56 67  0  0  0  0  0  0  0  0999 V2000
    0.4729   -0.0588   -0.0028 Fe  0  1  0  0  0  0  0  0  0  0  0  0
    1.4031    1.2281    1.1800 N   0  0  0  0  0  0  0  0  0  0  0  0
    1.4086    0.8431   -1.4961 N   0  0  0  0  0  0  0  0  0  0  0  0
    1.9732   -1.2573    0.1867 N   0  0  0  0  0  0  0  0  0  0  0  0
    3.4769    0.7244   -0.1173 B   0  5  2  0  0  0  0  0  0  0  0  0
    4.6384    1.0013   -0.1527 H   0  0  0  0  0  0  0  0  0  0  0  0
   -2.4395   -1.7863    0.2171 B   0  5  1  0  0  0  0  0  0  0  0  0
   -3.1634   -2.7365    0.3510 H   0  0  0  0  0  0  0  0  0  0  0  0
    3.2483   -0.7900    0.1096 N   0  0  0  0  0  0  0  0  0  0  0  0
    2.7328    1.4579    1.0229 N   0  0  0  0  0  0  0  0  0  0  0  0
    2.7391    1.1000   -1.4189 N   0  0  0  0  0  0  0  0  0  0  0  0
   -3.6494   -0.1430   -1.3056 N   0  0  0  0  0  0  0  0  0  0  0  0
   -3.3139   -0.5115   -0.0078 N   0  0  0  0  0  0  0  0  0  0  0  0
   -0.3738   -1.3374   -1.2238 N   0  0  0  0  0  0  0  0  0  0  0  0
   -1.5277   -2.0205   -0.9890 N   0  0  0  0  0  0  0  0  0  0  0  0
   -0.4236   -0.9306    1.5421 N   0  0  0  0  0  0  0  0  0  0  0  0
   -1.5896   -1.6307    1.4897 N   0  0  0  0  0  0  0  0  0  0  0  0
    2.0323   -2.5843    0.3951 C   0  0  0  0  0  0  0  0  0  0  0  0
    1.1207   -3.1560    0.4837 H   0  0  0  0  0  0  0  0  0  0  0  0
    3.3666   -2.9862    0.4551 C   0  0  0  0  0  0  0  0  0  0  0  0
    3.7495   -3.9835    0.6104 H   0  0  0  0  0  0  0  0  0  0  0  0
    4.1025   -1.8152    0.2696 C   0  0  0  0  0  0  0  0  0  0  0  0
    5.1693   -1.6454    0.2421 H   0  0  0  0  0  0  0  0  0  0  0  0
    0.9648    2.0341    2.1597 C   0  0  0  0  0  0  0  0  0  0  0  0
   -0.0753    2.0158    2.4486 H   0  0  0  0  0  0  0  0  0  0  0  0
    2.0283    2.7958    2.6537 C   0  0  0  0  0  0  0  0  0  0  0  0
    2.0022    3.5320    3.4427 H   0  0  0  0  0  0  0  0  0  0  0  0
    3.1299    2.3988    1.9012 C   0  0  0  0  0  0  0  0  0  0  0  0
    4.1618    2.7180    1.9293 H   0  0  0  0  0  0  0  0  0  0  0  0
    0.9589    1.3539   -2.6507 C   0  0  0  0  0  0  0  0  0  0  0  0
   -0.0846    1.2572   -2.9120 H   0  0  0  0  0  0  0  0  0  0  0  0
    2.0202    1.9489   -3.3439 C   0  0  0  0  0  0  0  0  0  0  0  0
    1.9862    2.4416   -4.3039 H   0  0  0  0  0  0  0  0  0  0  0  0
    3.1285    1.7682   -2.5240 C   0  0  0  0  0  0  0  0  0  0  0  0
    4.1600    2.0655   -2.6465 H   0  0  0  0  0  0  0  0  0  0  0  0
   -4.5117    0.8392   -1.1804 C   0  0  0  0  0  0  0  0  0  0  0  0
   -4.9320    1.3183   -2.0546 H   0  0  0  0  0  0  0  0  0  0  0  0
   -4.7579    1.1524    0.2047 C   0  0  0  0  0  0  0  0  0  0  0  0
   -5.4674    1.8532    0.6194 H   0  0  0  0  0  0  0  0  0  0  0  0
   -3.9660    0.2227    0.8972 C   0  0  0  0  0  0  0  0  0  0  0  0
   -3.8308    0.0715    1.9586 H   0  0  0  0  0  0  0  0  0  0  0  0
    0.1327   -1.7964   -2.3822 C   0  0  0  0  0  0  0  0  0  0  0  0
    1.0717   -1.4134   -2.7487 H   0  0  0  0  0  0  0  0  0  0  0  0
   -0.7077   -2.7728   -2.9181 C   0  0  0  0  0  0  0  0  0  0  0  0
   -0.5775   -3.3249   -3.8364 H   0  0  0  0  0  0  0  0  0  0  0  0
   -1.7475   -2.8807   -2.0034 C   0  0  0  0  0  0  0  0  0  0  0  0
   -2.6309   -3.5019   -2.0037 H   0  0  0  0  0  0  0  0  0  0  0  0
    0.0577   -1.0503    2.7894 C   0  0  0  0  0  0  0  0  0  0  0  0
    0.9986   -0.5915    3.0500 H   0  0  0  0  0  0  0  0  0  0  0  0
   -0.8084   -1.8253    3.5674 C   0  0  0  0  0  0  0  0  0  0  0  0
   -0.6963   -2.1006    4.6052 H   0  0  0  0  0  0  0  0  0  0  0  0
   -1.8350   -2.1764    2.7027 C   0  0  0  0  0  0  0  0  0  0  0  0
   -2.7173   -2.7813    2.8552 H   0  0  0  0  0  0  0  0  0  0  0  0
   -0.9697    1.2075   -0.1680 N   0  0  0  0  0  0  0  0  0  0  0  0
   -1.7136    2.1171   -0.1116 C   0  0  0  0  0  0  0  0  0  0  0  0
   -2.8260    3.3020   -0.0065 S   0  0  0  0  0  0  0  0  0  0  0  0
  2 24  2  0  0  0  0
  2  1  9  0  0  0  0
  3 11  1  0  0  0  0
  3  1  9  0  0  0  0
  4 18  2  0  0  0  0
  4  1  9  0  0  0  0
  5  6  1  6  0  0  0
  5  9  1  0  0  0  0
  5 10  1  0  0  0  0
  7  8  1  1  0  0  0
  7 17  1  0  0  0  0
  9  4  1  0  0  0  0
  9 22  1  0  0  0  0
  9  1  9  0  0  0  0
 10  2  1  0  0  0  0
 10 28  1  0  0  0  0
 10  1  9  0  0  0  0
 11  5  1  0  0  0  0
 11  1  9  0  0  0  0
 12 36  2  0  0  0  0
 12 13  1  0  0  0  0
 13  7  1  0  0  0  0
 13 40  1  0  0  0  0
 14 15  1  0  0  0  0
 14  1  9  0  0  0  0
 15  7  1  0  0  0  0
 16 48  2  0  0  0  0
 16  1  9  0  0  0  0
 17 16  1  0  0  0  0
 17 52  1  0  0  0  0
 18 20  1  0  0  0  0
 18 19  1  0  0  0  0
 20 21  1  0  0  0  0
 22 20  2  0  0  0  0
 23 22  1  0  0  0  0
 24 25  1  0  0  0  0
 24 26  1  0  0  0  0
 26 27  1  0  0  0  0
 28 29  1  0  0  0  0
 28 26  2  0  0  0  0
 30  3  2  0  0  0  0
 31 30  1  0  0  0  0
 32 30  1  0  0  0  0
 32 34  2  0  0  0  0
 33 32  1  0  0  0  0
 34 11  1  0  0  0  0
 35 34  1  0  0  0  0
 36 38  1  0  0  0  0
 37 36  1  0  0  0  0
 38 39  1  0  0  0  0
 38 40  2  0  0  0  0
 40 41  1  0  0  0  0
 42 14  2  0  0  0  0
 43 42  1  0  0  0  0
 44 42  1  0  0  0  0
 44 46  2  0  0  0  0
 45 44  1  0  0  0  0
 46 15  1  0  0  0  0
 47 46  1  0  0  0  0
 48 49  1  0  0  0  0
 48 50  1  0  0  0  0
 50 51  1  0  0  0  0
 52 53  1  0  0  0  0
 52 50  2  0  0  0  0
 54 55  2  0  0  0  0
 54  1  1  0  0  0  0
 55 56  2  0  0  0  0
M  CHG  3   1   3   5  -1   7  -1
M  END
$$$$
