
 OpenBabel02072512503D

 81 80  0  0  0  0  0  0  0  0999 V2000
   -2.5843   -0.3438    0.3312 Fe  0  3  2  0  0 28  0  0  0  0  0  0
   -3.7256    0.8450    1.5573 O   0  0  0  0  0  0  0  0  0  0  0  0
   -3.3721    1.6345    2.5086 C   0  0  0  0  0  0  0  0  0  0  0  0
   -2.1978    1.9139    2.8338 O   0  5  0  0  0  0  0  0  0  0  0  0
   -4.5319    2.2699    3.2694 C   0  0  0  0  0  0  0  0  0  0  0  0
   -5.1710    1.4837    3.6856 H   0  0  0  0  0  0  0  0  0  0  0  0
   -5.1481    2.8548    2.5766 H   0  0  0  0  0  0  0  0  0  0  0  0
   -4.1648    2.9149    4.0702 H   0  0  0  0  0  0  0  0  0  0  0  0
   -2.0764    1.5534   -0.7320 N   0  0  0  0  0  0  0  0  0  0  0  0
   -1.5630    2.6284   -0.1531 C   0  0  0  0  0  0  0  0  0  0  0  0
   -1.2976    3.5776   -1.0814 N   0  0  0  0  0  0  0  0  0  0  0  0
   -2.1363    1.8234   -2.0866 C   0  0  0  0  0  0  0  0  0  0  0  0
   -1.6482    3.0798   -2.3230 C   0  0  0  0  0  0  0  0  0  0  0  0
   -1.3850    2.7459    0.9047 H   0  0  0  0  0  0  0  0  0  0  0  0
   -0.8371    4.4557   -0.8936 H   0  0  0  0  0  0  0  0  0  0  0  0
   -2.5052    1.0930   -2.7886 H   0  0  0  0  0  0  0  0  0  0  0  0
   -1.5190    3.6489   -3.2301 H   0  0  0  0  0  0  0  0  0  0  0  0
   -4.3111   -0.4874   -0.9974 N   0  0  0  0  0  0  0  0  0  0  0  0
   -4.5131   -1.3042   -2.0155 C   0  0  0  0  0  0  0  0  0  0  0  0
   -5.6973   -1.0207   -2.6124 N   0  0  0  0  0  0  0  0  0  0  0  0
   -5.4034    0.3531   -0.9291 C   0  0  0  0  0  0  0  0  0  0  0  0
   -6.2798    0.0352   -1.9308 C   0  0  0  0  0  0  0  0  0  0  0  0
   -3.8401   -2.0808   -2.3427 H   0  0  0  0  0  0  0  0  0  0  0  0
   -6.0794   -1.4972   -3.4160 H   0  0  0  0  0  0  0  0  0  0  0  0
   -5.4541    1.0981   -0.1508 H   0  0  0  0  0  0  0  0  0  0  0  0
   -7.2375    0.4423   -2.2151 H   0  0  0  0  0  0  0  0  0  0  0  0
    1.2513    2.4375    1.1782 O   0  0  0  0  0  0  0  0  0  0  0  0
    2.4237    2.6570    0.5098 C   0  0  0  0  0  0  0  0  0  0  0  0
    3.4417    3.4169    1.0868 C   0  0  0  0  0  0  0  0  0  0  0  0
    4.6305    3.6641    0.3921 C   0  0  0  0  0  0  0  0  0  0  0  0
    4.7928    3.1551   -0.8970 C   0  0  0  0  0  0  0  0  0  0  0  0
    3.7769    2.3934   -1.4880 C   0  0  0  0  0  0  0  0  0  0  0  0
    2.5905    2.1254   -0.7917 C   0  0  0  0  0  0  0  0  0  0  0  0
    1.2412    1.1413   -1.3861 S   0  0  0  0  0  0  0  0  0  0  0  0
    1.7955    0.6121   -3.0373 C   0  0  0  0  0  0  0  0  0  0  0  0
    1.3576    1.6183    1.7465 H   0  0  0  0  0  0  0  0  0  0  0  0
    3.2814    3.8012    2.0896 H   0  0  0  0  0  0  0  0  0  0  0  0
    5.4185    4.2505    0.8556 H   0  0  0  0  0  0  0  0  0  0  0  0
    5.7067    3.3485   -1.4525 H   0  0  0  0  0  0  0  0  0  0  0  0
    3.9202    2.0058   -2.4912 H   0  0  0  0  0  0  0  0  0  0  0  0
    0.9432    0.0726   -3.4599 H   0  0  0  0  0  0  0  0  0  0  0  0
    2.6542   -0.0638   -2.9863 H   0  0  0  0  0  0  0  0  0  0  0  0
    2.0211    1.4721   -3.6756 H   0  0  0  0  0  0  0  0  0  0  0  0
    1.3515   -2.6050   -1.3668 N   0  0  0  0  0  0  0  0  0  0  0  0
    2.3714   -2.7750   -0.4902 C   0  0  0  0  0  0  0  0  0  0  0  0
    3.4954   -3.1177   -1.1094 N   0  0  0  0  0  0  0  0  0  0  0  0
    3.1697   -3.1625   -2.4522 C   0  0  0  0  0  0  0  0  0  0  0  0
    1.8437   -2.8459   -2.6304 C   0  0  0  0  0  0  0  0  0  0  0  0
    0.4043   -2.2749   -1.1406 H   0  0  0  0  0  0  0  0  0  0  0  0
    2.2454   -2.6488    0.5752 H   0  0  0  0  0  0  0  0  0  0  0  0
    3.9035   -3.4253   -3.2021 H   0  0  0  0  0  0  0  0  0  0  0  0
    1.2170   -2.7588   -3.5047 H   0  0  0  0  0  0  0  0  0  0  0  0
    4.4786   -2.0997    1.8280 N   0  0  0  0  0  0  0  0  0  0  0  0
    4.8410   -1.0981    1.0176 C   0  0  0  0  0  0  0  0  0  0  0  0
    4.5186    0.1608    1.3424 N   0  3  0  0  0  0  0  0  0  0  0  0
    5.5890   -1.4001   -0.0728 N   0  0  0  0  0  0  0  0  0  0  0  0
    5.9950   -0.3782   -1.0280 C   0  0  0  0  0  0  0  0  0  0  0  0
    3.6264   -1.9926    2.4225 H   0  0  0  0  0  0  0  0  0  0  0  0
    4.6665   -3.0371    1.4962 H   0  0  0  0  0  0  0  0  0  0  0  0
    3.7094    0.2732    1.9749 H   0  0  0  0  0  0  0  0  0  0  0  0
    4.5768    0.8703    0.6228 H   0  0  0  0  0  0  0  0  0  0  0  0
    5.2431   -2.2666   -0.5045 H   0  0  0  0  0  0  0  0  0  0  0  0
    6.6939   -0.8317   -1.7342 H   0  0  0  0  0  0  0  0  0  0  0  0
    6.5123    0.4368   -0.5139 H   0  0  0  0  0  0  0  0  0  0  0  0
    5.1470    0.0398   -1.5845 H   0  0  0  0  0  0  0  0  0  0  0  0
   -2.2526   -2.9898    2.1983 S   0  0  0  0  0  0  0  0  0  0  0  0
   -0.5066   -2.5191    1.9790 C   0  0  0  0  0  0  0  0  0  0  0  0
   -0.1703   -1.0838    2.4137 C   0  0  2  0  0  0  0  0  0  0  0  0
   -0.7321   -0.0755    1.4955 N   0  0  0  0  0  0  0  0  0  0  0  0
    1.3742   -0.9422    2.5846 C   0  0  0  0  0  0  0  0  0  0  0  0
    1.8972    0.1946    2.3751 O   0  0  0  0  0  0  0  0  0  0  0  0
    2.0013   -1.9798    2.9122 O   0  5  0  0  0  0  0  0  0  0  0  0
    0.0617   -3.2266    2.5889 H   0  0  0  0  0  0  0  0  0  0  0  0
   -0.2443   -2.6719    0.9298 H   0  0  0  0  0  0  0  0  0  0  0  0
   -0.6145   -0.9062    3.4010 H   0  0  0  0  0  0  0  0  0  0  0  0
   -0.0317    0.2039    0.8096 H   0  0  0  0  0  0  0  0  0  0  0  0
   -1.0144    0.7627    2.0315 H   0  0  0  0  0  0  0  0  0  0  0  0
   -3.0799   -1.9490    1.3340 O   0  0  0  0  0  1  0  0  0  0  0  0
   -1.3735   -1.4547   -1.1304 N   0  0  0  0  0  0  0  0  0  0  0  0
   -1.3687   -1.2824   -2.3222 N   0  3  0  0  0  0  0  0  0  0  0  0
   -1.3469   -1.1532   -3.4806 N   0  5  0  0  0  0  0  0  0  0  0  0
  1 79  1  1  0  0  0
  2  3  2  0  0  0  0
  2  1  9  0  0  0  0
  3  4  1  0  0  0  0
  3  5  1  0  0  0  0
  5  6  1  0  0  0  0
  5  8  1  0  0  0  0
  7  5  1  0  0  0  0
  9 10  2  0  0  0  0
  9  1  9  0  0  0  0
 10 14  1  0  0  0  0
 11 15  1  0  0  0  0
 11 10  1  0  0  0  0
 12  9  1  0  0  0  0
 13 12  2  0  0  0  0
 13 11  1  0  0  0  0
 16 12  1  0  0  0  0
 17 13  1  0  0  0  0
 18 21  1  0  0  0  0
 18  1  9  0  0  0  0
 19 18  2  0  0  0  0
 20 19  1  0  0  0  0
 20 22  1  0  0  0  0
 21 25  1  0  0  0  0
 22 21  2  0  0  0  0
 23 19  1  0  0  0  0
 24 20  1  0  0  0  0
 26 22  1  0  0  0  0
 27 36  1  0  0  0  0
 28 29  1  0  0  0  0
 28 27  1  0  0  0  0
 29 37  1  0  0  0  0
 30 38  1  0  0  0  0
 30 29  2  0  0  0  0
 31 30  1  0  0  0  0
 32 31  2  0  0  0  0
 32 33  1  0  0  0  0
 33 28  2  0  0  0  0
 34 33  1  0  0  0  0
 35 42  1  0  0  0  0
 35 34  1  0  0  0  0
 39 31  1  0  0  0  0
 40 32  1  0  0  0  0
 41 35  1  0  0  0  0
 43 35  1  0  0  0  0
 44 49  1  0  0  0  0
 44 45  1  0  0  0  0
 45 50  1  0  0  0  0
 46 45  2  0  0  0  0
 47 46  1  0  0  0  0
 48 47  2  0  0  0  0
 48 44  1  0  0  0  0
 51 47  1  0  0  0  0
 52 48  1  0  0  0  0
 53 58  1  0  0  0  0
 54 55  2  0  0  0  0
 54 53  1  0  0  0  0
 55 60  1  0  0  0  0
 56 54  1  0  0  0  0
 57 64  1  0  0  0  0
 57 56  1  0  0  0  0
 59 53  1  0  0  0  0
 61 55  1  0  0  0  0
 62 56  1  0  0  0  0
 63 57  1  0  0  0  0
 65 57  1  0  0  0  0
 67 66  1  0  0  0  0
 67 68  1  0  0  0  0
 67 73  1  0  0  0  0
 68 70  1  0  0  0  0
 68 75  1  1  0  0  0
 69 77  1  0  0  0  0
 69 68  1  0  0  0  0
 70 72  1  0  0  0  0
 71 70  2  0  0  0  0
 74 67  1  0  0  0  0
 76 69  1  0  0  0  0
 78 66  1  0  0  0  0
 80 79  2  0  0  0  0
 81 80  2  0  0  0  0
M  RAD  2   1   2  78   2
M  CHG  6   1   1   4  -1  55   1  72  -1  80   1  81  -1
M  END
$$$$
