
 OpenBabel02052520093D

 34 36  0  0  0  0  0  0  0  0999 V2000
   -0.0829    0.6315   -0.0116 Fe  0  0  0  0  0  0  0  0  0  0  0  0
   -0.6050   -1.0873   -1.1399 N   0  0  0  0  0  0  0  0  0  0  0  0
   -1.6065   -1.8963   -0.8322 C   0  0  0  0  0  0  0  0  0  0  0  0
   -1.7339   -2.8378   -1.7974 N   0  0  0  0  0  0  0  0  0  0  0  0
   -0.7681   -2.6103   -2.7647 C   0  0  0  0  0  0  0  0  0  0  0  0
   -0.0724   -1.5124   -2.3383 C   0  0  0  0  0  0  0  0  0  0  0  0
   -2.2400   -1.7895    0.0428 H   0  0  0  0  0  0  0  0  0  0  0  0
   -2.4365   -3.5625   -1.8135 H   0  0  0  0  0  0  0  0  0  0  0  0
   -0.6763   -3.2304   -3.6426 H   0  0  0  0  0  0  0  0  0  0  0  0
    0.7505   -0.9809   -2.7896 H   0  0  0  0  0  0  0  0  0  0  0  0
    1.3869   -0.7356    0.9762 N   0  0  0  0  0  0  0  0  0  0  0  0
    2.5292   -1.1765    0.4821 C   0  0  0  0  0  0  0  0  0  0  0  0
    3.1058   -2.0503    1.3454 N   0  0  0  0  0  0  0  0  0  0  0  0
    2.2786   -2.1704    2.4491 C   0  0  0  0  0  0  0  0  0  0  0  0
    1.2136   -1.3470    2.1997 C   0  0  0  0  0  0  0  0  0  0  0  0
    2.9419   -0.8832   -0.4704 H   0  0  0  0  0  0  0  0  0  0  0  0
    3.9854   -2.5252    1.2047 H   0  0  0  0  0  0  0  0  0  0  0  0
    2.5219   -2.8110    3.2824 H   0  0  0  0  0  0  0  0  0  0  0  0
    0.3339   -1.1417    2.7886 H   0  0  0  0  0  0  0  0  0  0  0  0
    1.2608    2.1452    0.3491 O   0  0  0  0  0  0  0  0  0  0  0  0
    1.9423    1.9155   -0.7070 C   0  0  0  0  0  0  0  0  0  0  0  0
    1.6536    0.9114   -1.4255 O   0  0  0  0  0  0  0  0  0  0  0  0
    3.0487    2.8628   -1.0923 C   0  0  0  0  0  0  0  0  0  0  0  0
    3.7408    2.3843   -1.7887 H   0  0  0  0  0  0  0  0  0  0  0  0
    3.5740    3.2155   -0.2009 H   0  0  0  0  0  0  0  0  0  0  0  0
    2.6003    3.7338   -1.5845 H   0  0  0  0  0  0  0  0  0  0  0  0
   -2.4657    0.3539    1.7041 C   0  0  0  0  0  0  0  0  0  0  0  0
   -1.1515    0.3207    1.5083 O   0  0  0  0  0  0  0  0  0  0  0  0
   -2.9785    1.6890    2.1949 C   0  0  0  0  0  0  0  0  0  0  0  0
   -2.3843    2.0316    3.0481 H   0  0  0  0  0  0  0  0  0  0  0  0
   -4.0341    1.6188    2.4639 H   0  0  0  0  0  0  0  0  0  0  0  0
   -2.8436    2.4159    1.3859 H   0  0  0  0  0  0  0  0  0  0  0  0
   -3.1857   -0.6158    1.5042 O   0  0  0  0  0  0  0  0  0  0  0  0
   -1.5352    1.9611   -1.2103 Cl  0  0  0  0  0  0  0  0  0  0  0  0
  1 20  1  0  0  0  0
  1 28  1  0  0  0  0
  2  3  2  0  0  0  0
  2  1  9  0  0  0  0
  3  7  1  0  0  0  0
  4  3  1  0  0  0  0
  5  6  2  0  0  0  0
  5  4  1  0  0  0  0
  6  2  1  0  0  0  0
  8  4  1  0  0  0  0
  9  5  1  0  0  0  0
 10  6  1  0  0  0  0
 11 15  1  0  0  0  0
 11  1  9  0  0  0  0
 12 11  2  0  0  0  0
 12 13  1  0  0  0  0
 13 14  1  0  0  0  0
 14 18  1  0  0  0  0
 15 14  2  0  0  0  0
 15 19  1  0  0  0  0
 16 12  1  0  0  0  0
 17 13  1  0  0  0  0
 21 20  1  0  0  0  0
 22 21  2  0  0  0  0
 22  1  9  0  0  0  0
 23 21  1  0  0  0  0
 23 25  1  0  0  0  0
 24 23  1  0  0  0  0
 26 23  1  0  0  0  0
 27 29  1  0  0  0  0
 28 27  1  0  0  0  0
 29 31  1  0  0  0  0
 29 30  1  0  0  0  0
 32 29  1  0  0  0  0
 33 27  2  0  0  0  0
 34  1  1  0  0  0  0
M  END
$$$$
