
 OpenBabel02052520093D

 34 36  0  0  0  0  0  0  0  0999 V2000
    0.0938    0.3804   -0.2298 Fe  0  0  0  0  0  0  0  0  0  0  0  0
    0.0078   -1.0906    1.2883 N   0  0  0  0  0  0  0  0  0  0  0  0
    0.4364   -2.3346    1.1401 C   0  0  0  0  0  0  0  0  0  0  0  0
    0.3216   -2.9904    2.3190 N   0  0  0  0  0  0  0  0  0  0  0  0
   -0.2013   -2.1176    3.2598 C   0  0  0  0  0  0  0  0  0  0  0  0
   -0.3910   -0.9353    2.5991 C   0  0  0  0  0  0  0  0  0  0  0  0
    0.8468   -2.7407    0.2208 H   0  0  0  0  0  0  0  0  0  0  0  0
    0.6014   -3.9466    2.4816 H   0  0  0  0  0  0  0  0  0  0  0  0
   -0.3763   -2.4121    4.2827 H   0  0  0  0  0  0  0  0  0  0  0  0
   -0.7609    0.0157    2.9486 H   0  0  0  0  0  0  0  0  0  0  0  0
   -1.9965   -0.2581   -0.6879 N   0  0  0  0  0  0  0  0  0  0  0  0
   -3.0894    0.0253   -0.0034 C   0  0  0  0  0  0  0  0  0  0  0  0
   -4.1587   -0.6078   -0.5482 N   0  0  0  0  0  0  0  0  0  0  0  0
   -3.7155   -1.3354   -1.6396 C   0  0  0  0  0  0  0  0  0  0  0  0
   -2.3674   -1.1071   -1.7088 C   0  0  0  0  0  0  0  0  0  0  0  0
   -3.1241    0.6670    0.8631 H   0  0  0  0  0  0  0  0  0  0  0  0
   -5.1100   -0.5523   -0.2149 H   0  0  0  0  0  0  0  0  0  0  0  0
   -4.3839   -1.9269   -2.2456 H   0  0  0  0  0  0  0  0  0  0  0  0
   -1.6282   -1.4806   -2.3994 H   0  0  0  0  0  0  0  0  0  0  0  0
   -0.4320    2.2489   -0.8759 O   0  0  0  0  0  0  0  0  0  0  0  0
   -0.9255    2.6059    0.2483 C   0  0  0  0  0  0  0  0  0  0  0  0
   -0.9977    1.7588    1.1883 O   0  0  0  0  0  0  0  0  0  0  0  0
   -1.3699    4.0320    0.4394 C   0  0  0  0  0  0  0  0  0  0  0  0
   -2.0537    4.1126    1.2872 H   0  0  0  0  0  0  0  0  0  0  0  0
   -1.8346    4.4110   -0.4745 H   0  0  0  0  0  0  0  0  0  0  0  0
   -0.4824    4.6426    0.6433 H   0  0  0  0  0  0  0  0  0  0  0  0
    1.6837   -1.4005   -1.9961 C   0  0  0  0  0  0  0  0  0  0  0  0
    0.5991   -0.7000   -1.6810 O   0  0  0  0  0  0  0  0  0  0  0  0
    2.6446   -0.6643   -2.9017 C   0  0  0  0  0  0  0  0  0  0  0  0
    2.1088   -0.2412   -3.7573 H   0  0  0  0  0  0  0  0  0  0  0  0
    3.4416   -1.3306   -3.2368 H   0  0  0  0  0  0  0  0  0  0  0  0
    3.0679    0.1711   -2.3321 H   0  0  0  0  0  0  0  0  0  0  0  0
    1.8753   -2.5383   -1.5874 O   0  0  0  0  0  0  0  0  0  0  0  0
    2.3841    1.1024    0.5238 Br  0  0  0  0  0  0  0  0  0  0  0  0
  1 22  1  0  0  0  0
  1 34  1  0  0  0  0
  2  6  1  0  0  0  0
  2  1  9  0  0  0  0
  3  2  2  0  0  0  0
  3  4  1  0  0  0  0
  4  8  1  0  0  0  0
  4  5  1  0  0  0  0
  5  9  1  0  0  0  0
  6 10  1  0  0  0  0
  6  5  2  0  0  0  0
  7  3  1  0  0  0  0
 11 12  2  0  0  0  0
 11  1  9  0  0  0  0
 12 16  1  0  0  0  0
 13 17  1  0  0  0  0
 13 12  1  0  0  0  0
 14 13  1  0  0  0  0
 15 14  2  0  0  0  0
 15 11  1  0  0  0  0
 18 14  1  0  0  0  0
 19 15  1  0  0  0  0
 20 21  2  0  0  0  0
 20  1  9  0  0  0  0
 21 23  1  0  0  0  0
 21 22  1  0  0  0  0
 23 26  1  0  0  0  0
 23 24  1  0  0  0  0
 25 23  1  0  0  0  0
 27 28  1  0  0  0  0
 27 33  2  0  0  0  0
 28  1  1  0  0  0  0
 29 32  1  0  0  0  0
 29 27  1  0  0  0  0
 30 29  1  0  0  0  0
 31 29  1  0  0  0  0
M  END
$$$$
