
 OpenBabel02052520093D

 35 37  0  0  0  0  0  0  0  0999 V2000
    0.0160   -0.4544   -0.7127 Fe  0  0  0  0  0  0  0  0  0  0  0  0
    0.7863    1.5293   -0.2794 N   0  0  0  0  0  0  0  0  0  0  0  0
    2.0731    1.8067   -0.1648 C   0  0  0  0  0  0  0  0  0  0  0  0
    2.2407    3.1413    0.0083 N   0  0  0  0  0  0  0  0  0  0  0  0
    0.9922    3.7408   -0.0084 C   0  0  0  0  0  0  0  0  0  0  0  0
    0.0993    2.7195   -0.1908 C   0  0  0  0  0  0  0  0  0  0  0  0
    2.8651    1.0714   -0.2258 H   0  0  0  0  0  0  0  0  0  0  0  0
    3.1278    3.6121    0.1095 H   0  0  0  0  0  0  0  0  0  0  0  0
    0.8650    4.8067    0.0992 H   0  0  0  0  0  0  0  0  0  0  0  0
   -0.9738    2.7408   -0.2940 H   0  0  0  0  0  0  0  0  0  0  0  0
   -1.1039   -0.2045    1.2915 N   0  0  0  0  0  0  0  0  0  0  0  0
   -2.2150    0.4767    1.5021 C   0  0  0  0  0  0  0  0  0  0  0  0
   -2.5713    0.4110    2.8115 N   0  0  0  0  0  0  0  0  0  0  0  0
   -1.6289   -0.3604    3.4694 C   0  0  0  0  0  0  0  0  0  0  0  0
   -0.7265   -0.7319    2.5084 C   0  0  0  0  0  0  0  0  0  0  0  0
   -2.7675    1.0047    0.7404 H   0  0  0  0  0  0  0  0  0  0  0  0
   -3.3852    0.8409    3.2255 H   0  0  0  0  0  0  0  0  0  0  0  0
   -1.6928   -0.5671    4.5265 H   0  0  0  0  0  0  0  0  0  0  0  0
    0.1615   -1.3393    2.5782 H   0  0  0  0  0  0  0  0  0  0  0  0
   -1.6245   -1.5930   -1.3073 O   0  0  0  0  0  0  0  0  0  0  0  0
   -2.2959   -0.5710   -1.6648 C   0  0  0  0  0  0  0  0  0  0  0  0
   -1.8353    0.5931   -1.4503 O   0  0  0  0  0  0  0  0  0  0  0  0
   -3.6203   -0.7641   -2.3635 C   0  0  0  0  0  0  0  0  0  0  0  0
   -4.2116    0.1538   -2.3322 H   0  0  0  0  0  0  0  0  0  0  0  0
   -4.1682   -1.5949   -1.9105 H   0  0  0  0  0  0  0  0  0  0  0  0
   -3.4276   -1.0237   -3.4109 H   0  0  0  0  0  0  0  0  0  0  0  0
    2.5217   -1.6873    0.2679 C   0  0  0  0  0  0  0  0  0  0  0  0
    1.2532   -1.4765    0.4606 O   0  0  0  0  0  0  0  0  0  0  0  0
    3.1091   -2.7759    1.1542 C   0  0  0  0  0  0  0  0  0  0  0  0
    2.9732   -2.5076    2.2082 H   0  0  0  0  0  0  0  0  0  0  0  0
    4.1706   -2.9152    0.9417 H   0  0  0  0  0  0  0  0  0  0  0  0
    2.5671   -3.7127    0.9862 H   0  0  0  0  0  0  0  0  0  0  0  0
    3.2345   -1.0749   -0.5427 O   0  0  0  0  0  0  0  0  0  0  0  0
    0.9994   -0.6093   -2.2338 O   0  0  0  0  0  0  0  0  0  0  0  0
    1.9465   -0.7281   -2.0057 H   0  0  0  0  0  0  0  0  0  0  0  0
  1 28  1  0  0  0  0
  2  6  1  0  0  0  0
  2  3  2  0  0  0  0
  2  1  9  0  0  0  0
  3  4  1  0  0  0  0
  4  8  1  0  0  0  0
  5  4  1  0  0  0  0
  5  9  1  0  0  0  0
  6  5  2  0  0  0  0
  7  3  1  0  0  0  0
 10  6  1  0  0  0  0
 11 12  2  0  0  0  0
 11 15  1  0  0  0  0
 11  1  9  0  0  0  0
 12 13  1  0  0  0  0
 13 17  1  0  0  0  0
 13 14  1  0  0  0  0
 14 18  1  0  0  0  0
 15 19  1  0  0  0  0
 15 14  2  0  0  0  0
 16 12  1  0  0  0  0
 20  1  1  0  0  0  0
 21 22  2  0  0  0  0
 21 20  1  0  0  0  0
 22  1  9  0  0  0  0
 23 24  1  0  0  0  0
 23 25  1  0  0  0  0
 23 21  1  0  0  0  0
 26 23  1  0  0  0  0
 27 28  1  0  0  0  0
 27 29  1  0  0  0  0
 29 30  1  0  0  0  0
 31 29  1  0  0  0  0
 32 29  1  0  0  0  0
 33 27  2  0  0  0  0
 34 35  1  0  0  0  0
 34  1  1  0  0  0  0
M  END
$$$$
