
 OpenBabel02072512503D

 36 36  0  0  0  0  0  0  0  0999 V2000
    0.3594    0.0625   -0.0892 Fe  0  0  2  0  0  0  0  0  0  0  0  0
   -0.0904    0.2103    2.1105 N   0  0  0  0  0  0  0  0  0  0  0  0
    0.7145   -0.2282    3.0650 C   0  0  0  0  0  0  0  0  0  0  0  0
    0.3053    0.2363    4.2704 N   0  0  0  0  0  0  0  0  0  0  0  0
   -0.8125    1.0281    4.0711 C   0  0  0  0  0  0  0  0  0  0  0  0
   -1.0451    1.0023    2.7227 C   0  0  0  0  0  0  0  0  0  0  0  0
    1.5771   -0.8536    2.9007 H   0  0  0  0  0  0  0  0  0  0  0  0
    0.7807    0.0843    5.1478 H   0  0  0  0  0  0  0  0  0  0  0  0
   -1.3163    1.5265    4.8846 H   0  0  0  0  0  0  0  0  0  0  0  0
   -1.7995    1.4970    2.1327 H   0  0  0  0  0  0  0  0  0  0  0  0
   -0.9824   -1.6438   -0.1454 N   0  0  0  0  0  0  0  0  0  0  0  0
   -1.9784   -1.9196    0.6743 C   0  0  0  0  0  0  0  0  0  0  0  0
   -2.7104   -2.9527    0.1883 N   0  0  0  0  0  0  0  0  0  0  0  0
   -2.1458   -3.3496   -1.0135 C   0  0  0  0  0  0  0  0  0  0  0  0
   -1.0735   -2.5216   -1.2061 C   0  0  0  0  0  0  0  0  0  0  0  0
   -2.1935   -1.3920    1.5903 H   0  0  0  0  0  0  0  0  0  0  0  0
   -3.5260   -3.3555    0.6257 H   0  0  0  0  0  0  0  0  0  0  0  0
   -2.5527   -4.1593   -1.5988 H   0  0  0  0  0  0  0  0  0  0  0  0
   -0.3580   -2.4673   -2.0111 H   0  0  0  0  0  0  0  0  0  0  0  0
   -0.4919    0.6570   -1.9152 O   0  0  0  0  0  1  0  0  0  0  0  0
   -1.4744    1.2548   -1.3683 C   0  0  0  0  0  0  0  0  0  0  0  0
   -1.5927    1.2293   -0.1088 O   0  0  0  0  0  0  0  0  0  0  0  0
   -2.4644    1.9996   -2.2312 C   0  0  0  0  0  0  0  0  0  0  0  0
   -3.3689    2.2354   -1.6663 H   0  0  0  0  0  0  0  0  0  0  0  0
   -2.7073    1.4073   -3.1180 H   0  0  0  0  0  0  0  0  0  0  0  0
   -2.0021    2.9329   -2.5728 H   0  0  0  0  0  0  0  0  0  0  0  0
    2.2563   -1.6153   -0.4160 C   0  0  0  0  0  0  0  0  0  0  0  0
    1.6039   -1.1247   -1.3890 O   0  0  0  0  0  0  0  0  0  0  0  0
    3.4409   -2.5143   -0.6812 C   0  0  0  0  0  0  0  0  0  0  0  0
    3.6608   -3.1309    0.1933 H   0  0  0  0  0  0  0  0  0  0  0  0
    4.3144   -1.8882   -0.8980 H   0  0  0  0  0  0  0  0  0  0  0  0
    3.2518   -3.1398   -1.5575 H   0  0  0  0  0  0  0  0  0  0  0  0
    1.9238   -1.3183    0.7703 O   0  0  0  0  0  0  0  0  0  0  0  0
    1.5659    1.5726    0.1203 N   0  0  0  0  0  0  0  0  0  0  0  0
    2.2016    1.8531    1.1090 N   0  3  0  0  0  0  0  0  0  0  0  0
    2.8136    2.1369    2.0477 N   0  5  0  0  0  0  0  0  0  0  0  0
  1 34  1  6  0  0  0
  1 33  1  0  0  0  0
  2  6  1  0  0  0  0
  2  3  2  0  0  0  0
  2  1  9  0  0  0  0
  3  4  1  0  0  0  0
  4  8  1  0  0  0  0
  5  4  1  0  0  0  0
  5  9  1  0  0  0  0
  6  5  2  0  0  0  0
  7  3  1  0  0  0  0
 10  6  1  0  0  0  0
 11 12  2  0  0  0  0
 11  1  9  0  0  0  0
 12 16  1  0  0  0  0
 13 17  1  0  0  0  0
 13 12  1  0  0  0  0
 14 13  1  0  0  0  0
 15 14  2  0  0  0  0
 15 11  1  0  0  0  0
 18 14  1  0  0  0  0
 19 15  1  0  0  0  0
 20 21  1  0  0  0  0
 21 22  2  0  0  0  0
 23 24  1  0  0  0  0
 23 21  1  0  0  0  0
 25 23  1  0  0  0  0
 26 23  1  0  0  0  0
 27 33  1  0  0  0  0
 28 27  2  0  0  0  0
 29 27  1  0  0  0  0
 29 30  1  0  0  0  0
 31 29  1  0  0  0  0
 32 29  1  0  0  0  0
 34 35  2  0  0  0  0
 35 36  2  0  0  0  0
M  RAD  1  20   2
M  CHG  2  35   1  36  -1
M  END
$$$$
