
 OpenBabel02052520093D

 81 82  0  0  0  0  0  0  0  0999 V2000
    6.7095   -2.2561   -0.9211 C   0  0  0  0  0  0  0  0  0  0  0  0
    7.6391   -2.7104   -1.2703 H   0  0  0  0  0  0  0  0  0  0  0  0
    6.9472   -1.3251   -0.3984 H   0  0  0  0  0  0  0  0  0  0  0  0
    6.0683   -3.1816    0.0115 N   0  0  0  0  0  0  0  0  0  0  0  0
    6.2431   -4.1678   -0.1141 H   0  0  0  0  0  0  0  0  0  0  0  0
    4.9903   -2.8432    0.7565 C   0  0  0  0  0  3  0  0  0  0  0  0
    4.4839   -1.6154    0.6694 N   0  0  0  0  0  0  0  0  0  0  0  0
    3.6329   -1.4264    1.2263 H   0  0  0  0  0  0  0  0  0  0  0  0
    4.4534   -1.1741   -0.2655 H   0  0  0  0  0  0  0  0  0  0  0  0
    4.4730   -3.7159    1.6385 N   0  0  0  0  0  0  0  0  0  0  0  0
    3.4401   -3.6442    1.7824 H   0  0  0  0  0  0  0  0  0  0  0  0
    4.9021   -4.6248    1.7381 H   0  0  0  0  0  0  0  0  0  0  0  0
   -3.1247   -0.6167    2.7073 N   0  0  0  0  0  0  0  0  0  0  0  0
   -3.2757   -1.3914    2.0274 H   0  0  0  0  0  0  0  0  0  0  0  0
   -2.1888   -0.5406    3.7144 C   0  0  0  0  0  0  0  0  0  0  0  0
   -3.5286    0.6575    2.4524 C   0  0  0  0  0  0  0  0  0  0  0  0
   -4.2358    0.8819    1.6644 H   0  0  0  0  0  0  0  0  0  0  0  0
   -2.9336    1.5447    3.2371 N   0  0  0  0  0  0  0  0  0  0  0  0
   -2.0939    0.7960    4.0352 C   0  0  0  0  0  0  0  0  0  0  0  0
   -1.4856    1.2570    4.8023 H   0  0  0  0  0  0  0  0  0  0  0  0
   -0.9316    3.3701   -0.2818 N   0  0  0  0  0  0  0  0  0  0  0  0
   -0.5442    4.1207    0.2781 H   0  0  0  0  0  0  0  0  0  0  0  0
   -0.6269    3.0943   -1.5998 C   0  0  0  0  0  0  0  0  0  0  0  0
   -1.5867    2.3067    0.2355 C   0  0  0  0  0  0  0  0  0  0  0  0
   -1.9151    2.2473    1.2637 H   0  0  0  0  0  0  0  0  0  0  0  0
   -1.7417    1.3719   -0.6961 N   0  0  0  0  0  0  0  0  0  0  0  0
   -1.1500    1.8553   -1.8526 C   0  0  0  0  0  0  0  0  0  0  0  0
   -1.1452    1.2516   -2.7466 H   0  0  0  0  0  0  0  0  0  0  0  0
    3.4735    5.2451   -1.1703 C   0  0  0  0  0  0  0  0  0  0  0  0
    2.5663    5.8376   -1.3290 H   0  0  0  0  0  0  0  0  0  0  0  0
    4.1091    5.3393   -2.0551 H   0  0  0  0  0  0  0  0  0  0  0  0
    3.1170    3.4630   -1.0029 S   0  0  0  0  0  0  0  0  0  0  0  0
   -6.2368   -0.5588   -1.9425 N   0  0  0  0  0  0  0  0  0  0  0  0
   -7.0632   -1.0737   -2.2080 H   0  0  0  0  0  0  0  0  0  0  0  0
   -6.0067    0.7887   -2.1599 C   0  0  0  0  0  0  0  0  0  0  0  0
   -5.1491   -1.0842   -1.3303 C   0  0  0  0  0  0  0  0  0  0  0  0
   -5.0189   -2.1119   -1.0319 H   0  0  0  0  0  0  0  0  0  0  0  0
   -4.2395   -0.1416   -1.1436 N   0  0  0  0  0  0  0  0  0  0  0  0
   -4.7572    1.0308   -1.6579 C   0  0  0  0  0  0  0  0  0  0  0  0
   -4.1859    1.9450   -1.6365 H   0  0  0  0  0  0  0  0  0  0  0  0
    1.4862   -0.8319   -2.6027 N   0  0  0  0  0  0  0  0  0  0  0  0
    0.4900   -1.0902   -2.7194 H   0  0  0  0  0  0  0  0  0  0  0  0
    2.0978    0.2872   -3.1198 C   0  0  0  0  0  0  0  0  0  0  0  0
    2.4213   -1.5108   -1.8937 C   0  0  0  0  0  0  0  0  0  0  0  0
    2.2045   -2.4273   -1.3610 H   0  0  0  0  0  0  0  0  0  0  0  0
    3.5995   -0.8982   -1.9304 N   0  0  0  0  0  0  0  0  0  0  0  0
    3.4021    0.2302   -2.6963 C   0  0  0  0  0  0  0  0  0  0  0  0
    4.1983    0.9393   -2.8709 H   0  0  0  0  0  0  0  0  0  0  0  0
    0.9432    4.4085    2.3685 C   0  0  0  0  0  0  0  0  0  0  0  0
    1.7207    4.5429    1.2087 C   0  0  0  0  0  0  0  0  0  0  0  0
    1.9663    5.5389    0.8563 H   0  0  0  0  0  0  0  0  0  0  0  0
    2.1740    3.4167    0.5115 C   0  0  0  0  0  0  0  0  0  0  0  0
    1.8479    2.1290    1.0028 C   0  0  0  0  0  0  0  0  0  0  0  0
    2.2657    1.0691    0.2827 O   0  0  0  0  0  0  0  0  0  0  0  0
    2.0499    0.2187    0.7536 H   0  0  0  0  0  0  0  0  0  0  0  0
    0.6363    3.1364    2.8519 C   0  0  0  0  0  0  0  0  0  0  0  0
    0.0328    3.0174    3.7463 H   0  0  0  0  0  0  0  0  0  0  0  0
    1.0984    2.0032    2.1807 C   0  0  0  0  0  0  0  0  0  0  0  0
    0.8895    1.0084    2.5637 H   0  0  0  0  0  0  0  0  0  0  0  0
   -0.5589   -0.8793    0.3915 N   0  0  0  0  0  0  0  0  0  0  0  0
   -0.3658   -0.1233    1.0489 H   0  0  0  0  0  0  0  0  0  0  0  0
   -0.2393   -2.1657    1.0608 C   0  0  1  0  0  0  0  0  0  0  0  0
   -0.7552   -2.1479    2.0262 H   0  0  0  0  0  0  0  0  0  0  0  0
   -0.7710   -3.3377    0.2387 C   0  0  0  0  0  0  0  0  0  0  0  0
   -0.5786   -3.1651   -0.8257 H   0  0  0  0  0  0  0  0  0  0  0  0
   -0.2723   -4.2578    0.5547 H   0  0  0  0  0  0  0  0  0  0  0  0
   -2.5582   -3.6155    0.5027 S   0  0  0  0  0  0  0  0  0  0  0  0
    1.2705   -2.2813    1.3940 C   0  0  0  0  0  0  0  0  0  0  0  0
    1.8973   -1.1886    1.5981 O   0  5  0  0  0  0  0  0  0  0  0  0
    1.7591   -3.4293    1.4831 O   0  0  0  0  0  0  0  0  0  0  0  0
    0.0992   -0.7274   -0.3759 H   0  0  0  0  0  0  0  0  0  0  0  0
   -2.4121   -0.5636   -0.4565 Fe  0  3  0  0  0  0  0  0  0  0  0  0
   -3.2074   -2.0718    0.4358 O   0  0  0  0  0  0  0  0  0  0  0  0
    6.0628   -2.0240   -1.7742 H   0  0  0  0  0  0  0  0  0  0  0  0
   -1.7119   -1.4205    4.1193 H   0  0  0  0  0  0  0  0  0  0  0  0
   -0.0541    3.7737   -2.2100 H   0  0  0  0  0  0  0  0  0  0  0  0
    4.0171    5.6312   -0.3026 H   0  0  0  0  0  0  0  0  0  0  0  0
   -6.7327    1.4280   -2.6370 H   0  0  0  0  0  0  0  0  0  0  0  0
    1.5562    1.0079   -3.7118 H   0  0  0  0  0  0  0  0  0  0  0  0
    0.6012    5.2964    2.8927 H   0  0  0  0  0  0  0  0  0  0  0  0
   -1.6021   -1.4137   -2.7113 Cl  0  0  0  0  0  0  0  0  0  0  0  0
  1  3  1  0  0  0  0
  1  4  1  0  0  0  0
  2  1  1  0  0  0  0
  4  6  1  0  0  0  0
  5  4  1  0  0  0  0
  6 10  1  0  0  0  0
  7  6  1  0  0  0  0
  7  8  1  0  0  0  0
  9  7  1  0  0  0  0
 10 12  1  0  0  0  0
 10 11  1  0  0  0  0
 13 15  1  0  0  0  0
 14 13  1  0  0  0  0
 15 19  2  0  0  0  0
 15 75  1  0  0  0  0
 16 13  1  0  0  0  0
 16 18  2  0  0  0  0
 17 16  1  0  0  0  0
 18 19  1  0  0  0  0
 19 20  1  0  0  0  0
 21 24  1  0  0  0  0
 21 22  1  0  0  0  0
 23 21  1  0  0  0  0
 24 25  1  0  0  0  0
 26 24  2  0  0  0  0
 26 72  9  0  0  0  0
 27 23  2  0  0  0  0
 27 26  1  0  0  0  0
 28 27  1  0  0  0  0
 29 32  1  0  0  0  0
 29 77  1  0  0  0  0
 30 29  1  0  0  0  0
 31 29  1  0  0  0  0
 32 52  1  0  0  0  0
 33 36  1  0  0  0  0
 34 33  1  0  0  0  0
 35 33  1  0  0  0  0
 35 39  2  0  0  0  0
 36 38  2  0  0  0  0
 36 37  1  0  0  0  0
 38 72  9  0  0  0  0
 39 40  1  0  0  0  0
 39 38  1  0  0  0  0
 41 44  1  0  0  0  0
 42 41  1  0  0  0  0
 43 47  2  0  0  0  0
 43 41  1  0  0  0  0
 44 45  1  0  0  0  0
 46 44  2  0  0  0  0
 47 46  1  0  0  0  0
 48 47  1  0  0  0  0
 49 56  1  0  0  0  0
 49 80  1  0  0  0  0
 50 49  2  0  0  0  0
 51 50  1  0  0  0  0
 52 53  2  0  0  0  0
 52 50  1  0  0  0  0
 53 58  1  0  0  0  0
 54 55  1  0  0  0  0
 54 53  1  0  0  0  0
 56 57  1  0  0  0  0
 58 59  1  0  0  0  0
 58 56  2  0  0  0  0
 60 61  1  0  0  0  0
 60 62  1  0  0  0  0
 60 72  9  0  0  0  0
 62 68  1  0  0  0  0
 62 63  1  1  0  0  0
 64 67  1  0  0  0  0
 64 66  1  0  0  0  0
 64 62  1  0  0  0  0
 65 64  1  0  0  0  0
 68 70  2  0  0  0  0
 68 69  1  0  0  0  0
 71 60  1  0  0  0  0
 72 73  1  0  0  0  0
 73 67  1  0  0  0  0
 74  1  1  0  0  0  0
 76 23  1  0  0  0  0
 78 35  1  0  0  0  0
 79 43  1  0  0  0  0
 81 72  1  0  0  0  0
M  RAD  1   6   2
M  CHG  2  69  -1  72   1
M  END
$$$$
