
 OpenBabel02052520093D

 77 78  0  0  0  0  0  0  0  0999 V2000
   -0.3127   -0.5813   -0.4996 Fe  0  0  2  0  0  0  0  0  0  0  0  0
    3.6557   -1.3213   -1.7661 O   0  0  0  0  0  0  0  0  0  0  0  0
    0.5829   -2.1814    2.8274 O   0  0  0  0  0  0  0  0  0  0  0  0
   -4.1317   -0.0725   -1.9220 O   0  0  0  0  0  0  0  0  0  0  0  0
   -0.8006   -2.9610   -0.7949 N   0  0  1  0  0  0  0  0  0  0  0  0
    1.4886   -1.3040   -0.9370 N   0  0  0  0  0  2  0  0  0  0  0  0
   -0.8013   -1.0740    1.3207 N   0  0  0  0  0  0  0  0  0  0  0  0
   -1.9201   -0.5857   -1.4892 N   0  0  0  0  0  0  0  0  0  0  0  0
    2.6773    0.6858   -1.2328 N   0  0  0  0  0  0  0  0  0  0  0  0
    0.9876    0.0182    2.2920 N   0  0  0  0  0  0  0  0  0  0  0  0
   -3.1480    0.7137   -0.0020 N   0  0  0  0  0  0  0  0  0  0  0  0
    0.4739   -3.4862   -1.2828 C   0  0  0  0  0  0  0  0  0  0  0  0
    1.6363   -2.7176   -0.6352 C   0  0  0  0  0  0  0  0  0  0  0  0
    2.7101   -0.6589   -1.3406 C   0  0  0  0  0  0  0  0  0  0  0  0
    3.7645    1.5951   -1.6583 C   0  0  0  0  0  0  0  0  0  0  0  0
    3.2733    3.0199   -1.3583 C   0  0  0  0  0  0  0  0  0  0  0  0
    4.0177    1.4315   -3.1688 C   0  0  0  0  0  0  0  0  0  0  0  0
    5.0435    1.2923   -0.8569 C   0  0  0  0  0  0  0  0  0  0  0  0
   -1.1638   -3.3988    0.5660 C   0  0  0  0  0  0  0  0  0  0  0  0
   -1.7175   -2.2083    1.3699 C   0  0  0  0  0  0  0  0  0  0  0  0
    0.2875   -1.1501    2.2097 C   0  0  0  0  0  0  0  0  0  0  0  0
    2.2866    0.1941    2.9701 C   0  0  0  0  0  0  0  0  0  0  0  0
    2.1204   -0.0229    4.4847 C   0  0  0  0  0  0  0  0  0  0  0  0
    3.3256   -0.7871    2.3949 C   0  0  0  0  0  0  0  0  0  0  0  0
    2.7221    1.6386    2.6825 C   0  0  0  0  0  0  0  0  0  0  0  0
   -1.9155   -2.9794   -1.7686 C   0  0  0  0  0  0  0  0  0  0  0  0
   -1.9528   -1.6365   -2.5051 C   0  0  0  0  0  0  0  0  0  0  0  0
   -3.1538    0.0279   -1.1776 C   0  0  0  0  0  0  0  0  0  0  0  0
   -4.2832    1.4916    0.5364 C   0  0  0  0  0  0  0  0  0  0  0  0
   -4.6745    2.6006   -0.4560 C   0  0  0  0  0  0  0  0  0  0  0  0
   -5.4759    0.5583    0.8135 C   0  0  0  0  0  0  0  0  0  0  0  0
   -3.7803    2.1156    1.8475 C   0  0  0  0  0  0  0  0  0  0  0  0
    1.8083    1.1070   -0.9125 H   0  0  0  0  0  0  0  0  0  0  0  0
    0.6236    0.7982    1.7586 H   0  0  0  0  0  0  0  0  0  0  0  0
   -2.3338    0.6222    0.5930 H   0  0  0  0  0  0  0  0  0  0  0  0
    0.5209   -3.3377   -2.3657 H   0  0  0  0  0  0  0  0  0  0  0  0
    0.5822   -4.5622   -1.0793 H   0  0  0  0  0  0  0  0  0  0  0  0
    1.5963   -2.8395    0.4580 H   0  0  0  0  0  0  0  0  0  0  0  0
    2.6035   -3.0836   -0.9855 H   0  0  0  0  0  0  0  0  0  0  0  0
    2.3502    3.2479   -1.9037 H   0  0  0  0  0  0  0  0  0  0  0  0
    4.0343    3.7454   -1.6615 H   0  0  0  0  0  0  0  0  0  0  0  0
    3.0804    3.1598   -0.2887 H   0  0  0  0  0  0  0  0  0  0  0  0
    4.3352    0.4114   -3.3963 H   0  0  0  0  0  0  0  0  0  0  0  0
    4.8017    2.1252   -3.4925 H   0  0  0  0  0  0  0  0  0  0  0  0
    3.1061    1.6534   -3.7352 H   0  0  0  0  0  0  0  0  0  0  0  0
    4.8635    1.4191    0.2159 H   0  0  0  0  0  0  0  0  0  0  0  0
    5.8411    1.9809   -1.1571 H   0  0  0  0  0  0  0  0  0  0  0  0
    5.3783    0.2683   -1.0373 H   0  0  0  0  0  0  0  0  0  0  0  0
   -0.2700   -3.7561    1.0792 H   0  0  0  0  0  0  0  0  0  0  0  0
   -1.8889   -4.2243    0.5302 H   0  0  0  0  0  0  0  0  0  0  0  0
   -2.6735   -1.8773    0.9522 H   0  0  0  0  0  0  0  0  0  0  0  0
   -1.8750   -2.5280    2.4054 H   0  0  0  0  0  0  0  0  0  0  0  0
    1.3923    0.6865    4.8937 H   0  0  0  0  0  0  0  0  0  0  0  0
    3.0776    0.1286    4.9971 H   0  0  0  0  0  0  0  0  0  0  0  0
    1.7683   -1.0378    4.6824 H   0  0  0  0  0  0  0  0  0  0  0  0
    3.0042   -1.8190    2.5548 H   0  0  0  0  0  0  0  0  0  0  0  0
    4.2935   -0.6439    2.8882 H   0  0  0  0  0  0  0  0  0  0  0  0
    3.4623   -0.6173    1.3220 H   0  0  0  0  0  0  0  0  0  0  0  0
    2.8238    1.8032    1.6038 H   0  0  0  0  0  0  0  0  0  0  0  0
    3.6895    1.8422    3.1519 H   0  0  0  0  0  0  0  0  0  0  0  0
    1.9941    2.3582    3.0760 H   0  0  0  0  0  0  0  0  0  0  0  0
   -2.8518   -3.0923   -1.2151 H   0  0  0  0  0  0  0  0  0  0  0  0
   -1.8269   -3.8301   -2.4588 H   0  0  0  0  0  0  0  0  0  0  0  0
   -1.0748   -1.5355   -3.1560 H   0  0  0  0  0  0  0  0  0  0  0  0
   -2.8528   -1.5399   -3.1184 H   0  0  0  0  0  0  0  0  0  0  0  0
   -5.0071    2.1664   -1.4014 H   0  0  0  0  0  0  0  0  0  0  0  0
   -3.8176    3.2548   -0.6491 H   0  0  0  0  0  0  0  0  0  0  0  0
   -5.4884    3.2048   -0.0389 H   0  0  0  0  0  0  0  0  0  0  0  0
   -5.1948   -0.2175    1.5360 H   0  0  0  0  0  0  0  0  0  0  0  0
   -5.8013    0.0766   -0.1114 H   0  0  0  0  0  0  0  0  0  0  0  0
   -6.3150    1.1276    1.2298 H   0  0  0  0  0  0  0  0  0  0  0  0
   -2.9320    2.7843    1.6610 H   0  0  0  0  0  0  0  0  0  0  0  0
   -3.4680    1.3398    2.5587 H   0  0  0  0  0  0  0  0  0  0  0  0
   -4.5794    2.6996    2.3148 H   0  0  0  0  0  0  0  0  0  0  0  0
    0.0099    1.3906   -0.3232 N   0  0  0  0  0  0  0  0  0  0  0  0
   -0.3400    2.5380   -0.3139 C   0  0  0  0  0  0  0  0  0  0  0  0
   -0.7615    4.0822   -0.2736 S   0  0  0  0  0  0  0  0  0  0  0  0
  1 75  1  6  0  0  0
  1  7  1  0  0  0  0
  2 14  2  0  0  0  0
  4 28  2  0  0  0  0
  5 12  1  6  0  0  0
  5 19  1  0  0  0  0
  5  1  9  0  0  0  0
  6 13  1  0  0  0  0
  7 20  1  0  0  0  0
  7 21  1  0  0  0  0
  8 28  1  0  0  0  0
  8  1  1  0  0  0  0
  9 33  1  0  0  0  0
 10 22  1  0  0  0  0
 11 29  1  0  0  0  0
 11 35  1  0  0  0  0
 12 37  1  0  0  0  0
 12 13  1  0  0  0  0
 13 38  1  0  0  0  0
 14  9  1  0  0  0  0
 14  6  1  0  0  0  0
 15 16  1  0  0  0  0
 15  9  1  0  0  0  0
 15 18  1  0  0  0  0
 16 42  1  0  0  0  0
 17 15  1  0  0  0  0
 18 46  1  0  0  0  0
 19 49  1  0  0  0  0
 19 20  1  0  0  0  0
 20 52  1  0  0  0  0
 21 10  1  0  0  0  0
 21  3  2  0  0  0  0
 22 23  1  0  0  0  0
 23 55  1  0  0  0  0
 23 53  1  0  0  0  0
 23 54  1  0  0  0  0
 24 56  1  0  0  0  0
 24 57  1  0  0  0  0
 24 22  1  0  0  0  0
 25 22  1  0  0  0  0
 25 61  1  0  0  0  0
 25 60  1  0  0  0  0
 26 62  1  0  0  0  0
 26  5  1  0  0  0  0
 27 26  1  0  0  0  0
 27  8  1  0  0  0  0
 28 11  1  0  0  0  0
 29 31  1  0  0  0  0
 29 32  1  0  0  0  0
 30 68  1  0  0  0  0
 30 29  1  0  0  0  0
 31 71  1  0  0  0  0
 31 69  1  0  0  0  0
 32 74  1  0  0  0  0
 32 73  1  0  0  0  0
 34 10  1  0  0  0  0
 36 12  1  0  0  0  0
 39 13  1  0  0  0  0
 40 16  1  0  0  0  0
 41 16  1  0  0  0  0
 43 17  1  0  0  0  0
 44 17  1  0  0  0  0
 45 17  1  0  0  0  0
 47 18  1  0  0  0  0
 48 18  1  0  0  0  0
 50 19  1  0  0  0  0
 51 20  1  0  0  0  0
 58 24  1  0  0  0  0
 59 25  1  0  0  0  0
 63 26  1  0  0  0  0
 64 27  1  0  0  0  0
 65 27  1  0  0  0  0
 66 30  1  0  0  0  0
 67 30  1  0  0  0  0
 70 31  1  0  0  0  0
 72 32  1  0  0  0  0
 75 76  2  0  0  0  0
 76 77  2  0  0  0  0
M  RAD  1   6   2
M  END
$$$$
