
 OpenBabel02052520093D

 72 75  0  0  0  0  0  0  0  0999 V2000
   -3.6574    3.4378    0.3383 C   0  0  0  0  0  0  0  0  0  0  0  0
   -3.7527    4.2701   -0.3712 H   0  0  0  0  0  0  0  0  0  0  0  0
   -4.6078    2.8913    0.3461 H   0  0  0  0  0  0  0  0  0  0  0  0
   -2.4118    1.8659   -1.2087 N   0  0  0  0  0  0  0  0  0  0  0  0
   -3.1593    1.7545   -1.8832 H   0  0  0  0  0  0  0  0  0  0  0  0
   -2.5134    2.5417   -0.0001 C   0  0  0  0  0  0  0  0  0  0  0  0
   -1.2694    1.1267   -1.1832 C   0  0  0  0  0  0  0  0  0  0  0  0
   -0.9348    0.4848   -1.9816 H   0  0  0  0  0  0  0  0  0  0  0  0
   -0.6238    1.3095   -0.0488 N   0  0  0  0  0  0  0  0  0  0  0  0
   -1.3859    2.1890    0.6968 C   0  0  0  0  0  0  0  0  0  0  0  0
   -1.0647    2.4860    1.6830 H   0  0  0  0  0  0  0  0  0  0  0  0
   -0.9923   -0.4168    3.8488 C   0  0  0  0  0  0  0  0  0  0  0  0
   -2.0075   -0.4428    3.4302 H   0  0  0  0  0  0  0  0  0  0  0  0
   -0.8113   -1.3797    4.3370 H   0  0  0  0  0  0  0  0  0  0  0  0
   -0.0205   -0.2213    2.7069 C   0  0  1  0  0  0  0  0  0  0  0  0
    0.5767    0.8772    2.5450 O   0  0  0  0  0  0  0  0  0  0  0  0
    0.1295   -1.1733    1.8632 O   0  0  0  0  0  0  0  0  0  0  0  0
    2.7029    5.6949   -1.3396 C   0  0  0  0  0  0  0  0  0  0  0  0
    3.4760    5.8052   -2.1113 H   0  0  0  0  0  0  0  0  0  0  0  0
    1.7328    5.8651   -1.8149 H   0  0  0  0  0  0  0  0  0  0  0  0
    3.8277    3.8370   -0.0338 N   0  0  0  0  0  0  0  0  0  0  0  0
    4.7036    4.3178    0.1123 H   0  0  0  0  0  0  0  0  0  0  0  0
    2.7254    4.3399   -0.7138 C   0  0  0  0  0  0  0  0  0  0  0  0
    3.5273    2.5905    0.4143 C   0  0  0  0  0  0  0  0  0  0  0  0
    4.1942    1.9471    0.9696 H   0  0  0  0  0  0  0  0  0  0  0  0
    2.2980    2.2630    0.0617 N   0  0  0  0  0  0  0  0  0  0  0  0
    1.7895    3.3412   -0.6375 C   0  0  0  0  0  0  0  0  0  0  0  0
    0.7833    3.3236   -1.0268 H   0  0  0  0  0  0  0  0  0  0  0  0
    4.3694   -3.7173    0.1178 C   0  0  0  0  0  0  0  0  0  0  0  0
    4.3561   -4.4025    0.9715 H   0  0  0  0  0  0  0  0  0  0  0  0
    5.0794   -4.1034   -0.6172 H   0  0  0  0  0  0  0  0  0  0  0  0
    3.0530   -3.6852   -0.5070 N   0  0  0  0  0  0  0  0  0  0  0  0
    3.0028   -3.5022   -1.5054 H   0  0  0  0  0  0  0  0  0  0  0  0
    1.8991   -3.4882    0.1523 C   0  0  0  0  0  3  0  0  0  0  0  0
    1.8878   -3.3523    1.4988 N   0  0  0  0  0  0  0  0  0  0  0  0
    2.7197   -2.8790    1.8497 H   0  0  0  0  0  0  0  0  0  0  0  0
    1.0746   -2.8261    1.8337 H   0  0  0  0  0  0  0  0  0  0  0  0
    0.7584   -3.5370   -0.5524 N   0  0  0  0  0  0  0  0  0  0  0  0
    0.8857   -3.2611   -1.5323 H   0  0  0  0  0  0  0  0  0  0  0  0
   -0.0976   -3.1502   -0.1401 H   0  0  0  0  0  0  0  0  0  0  0  0
    1.3248    0.3505    0.5529 Fe  0  0  0  0  0  0  0  0  0  0  0  0
    3.2710   -0.2025   -2.3083 C   0  0  0  0  0  0  0  0  0  0  0  0
    2.9810    0.8416   -2.4638 H   0  0  0  0  0  0  0  0  0  0  0  0
    3.8644   -0.2344   -1.3862 H   0  0  0  0  0  0  0  0  0  0  0  0
    2.0347   -1.0595   -2.0907 C   0  0  0  0  0  0  0  0  0  0  0  0
    1.8982   -2.1371   -2.7156 O   0  0  0  0  0  0  0  0  0  0  0  0
    1.1775   -0.6340   -1.2275 O   0  0  0  0  0  0  0  0  0  0  0  0
   -5.6157    0.4361    0.3030 N   0  0  0  0  0  0  0  0  0  0  0  0
   -1.7250   -2.3191   -2.3955 C   0  0  0  0  0  0  0  0  0  0  0  0
   -1.8998   -2.2533   -3.4714 H   0  0  0  0  0  0  0  0  0  0  0  0
   -1.6823   -3.3702   -2.1018 H   0  0  0  0  0  0  0  0  0  0  0  0
   -0.7697   -1.8449   -2.1505 H   0  0  0  0  0  0  0  0  0  0  0  0
   -3.8397   -0.8660    0.3150 C   0  0  0  0  0  0  0  0  0  0  0  0
   -4.1560   -0.6263    1.6353 N   0  0  0  0  0  0  0  0  0  0  0  0
   -5.2254    0.1538    1.5933 C   0  0  0  0  0  0  0  0  0  0  0  0
   -5.7592    0.5375    2.4513 H   0  0  0  0  0  0  0  0  0  0  0  0
   -2.8178   -1.6448   -1.6894 N   0  0  0  0  0  0  0  0  0  0  0  0
   -3.7355   -0.9327   -2.3899 C   0  0  0  0  0  3  0  0  0  0  0  0
   -3.6287   -0.9867   -3.4706 H   0  0  0  0  0  0  0  0  0  0  0  0
   -4.7100   -0.1892   -1.9078 N   0  0  0  0  0  0  0  0  0  0  0  0
   -4.7360   -0.2147   -0.5299 C   0  0  0  0  0  0  0  0  0  0  0  0
   -2.7858   -1.6271   -0.2542 C   0  0  0  0  0  0  0  0  0  0  0  0
   -1.8906   -2.4744    0.4236 N   0  0  0  0  0  0  0  0  0  0  0  0
   -2.3860   -3.1744    0.9818 H   0  0  0  0  0  0  0  0  0  0  0  0
   -1.2965   -1.9318    1.0677 H   0  0  0  0  0  0  0  0  0  0  0  0
    2.8553    6.4916   -0.5997 H   0  0  0  0  0  0  0  0  0  0  0  0
   -3.5087    3.8622    1.3352 H   0  0  0  0  0  0  0  0  0  0  0  0
   -6.4228    0.9666    0.0079 H   0  0  0  0  0  0  0  0  0  0  0  0
    3.8592   -0.5685   -3.1526 H   0  0  0  0  0  0  0  0  0  0  0  0
    4.6843   -2.7235    0.4524 H   0  0  0  0  0  0  0  0  0  0  0  0
   -0.9136    0.3942    4.5755 H   0  0  0  0  0  0  0  0  0  0  0  0
    3.5271   -0.5470    1.3772 Cl  0  0  0  0  0  0  0  0  0  0  0  0
  1  3  1  0  0  0  0
  1 67  1  0  0  0  0
  2  1  1  0  0  0  0
  4  7  1  0  0  0  0
  4  6  1  0  0  0  0
  5  4  1  0  0  0  0
  6  1  1  0  0  0  0
  6 10  2  0  0  0  0
  7  9  2  0  0  0  0
  8  7  1  0  0  0  0
  9 10  1  0  0  0  0
  9 41  9  0  0  0  0
 10 11  1  0  0  0  0
 12 14  1  0  0  0  0
 12 71  1  0  0  0  0
 13 12  1  0  0  0  0
 15 12  1  6  0  0  0
 15 41  1  0  0  0  0
 16 15  1  0  0  0  0
 17 15  1  0  0  0  0
 18 23  1  0  0  0  0
 18 66  1  0  0  0  0
 19 18  1  0  0  0  0
 20 18  1  0  0  0  0
 21 22  1  0  0  0  0
 21 24  1  0  0  0  0
 23 27  2  0  0  0  0
 23 21  1  0  0  0  0
 24 25  1  0  0  0  0
 26 24  2  0  0  0  0
 26 41  9  0  0  0  0
 27 26  1  0  0  0  0
 28 27  1  0  0  0  0
 29 70  1  0  0  0  0
 29 30  1  0  0  0  0
 31 29  1  0  0  0  0
 32 29  1  0  0  0  0
 32 34  1  0  0  0  0
 33 32  1  0  0  0  0
 34 35  1  0  0  0  0
 35 37  1  0  0  0  0
 35 36  1  0  0  0  0
 38 40  1  0  0  0  0
 38 34  1  0  0  0  0
 39 38  1  0  0  0  0
 41 72  1  0  0  0  0
 41 17  1  0  0  0  0
 41 16  1  0  0  0  0
 42 45  1  0  0  0  0
 42 44  1  0  0  0  0
 43 42  1  0  0  0  0
 45 47  1  0  0  0  0
 46 45  2  0  0  0  0
 47 41  1  0  0  0  0
 48 55  1  0  0  0  0
 49 52  1  0  0  0  0
 49 51  1  0  0  0  0
 49 57  1  0  0  0  0
 50 49  1  0  0  0  0
 53 54  1  0  0  0  0
 55 54  2  0  0  0  0
 55 56  1  0  0  0  0
 57 62  1  0  0  0  0
 58 60  1  0  0  0  0
 58 57  1  0  0  0  0
 59 58  1  0  0  0  0
 60 61  2  0  0  0  0
 61 48  1  0  0  0  0
 61 53  1  0  0  0  0
 62 53  2  0  0  0  0
 62 63  1  0  0  0  0
 63 64  1  0  0  0  0
 63 65  1  0  0  0  0
 68 48  1  0  0  0  0
 69 42  1  0  0  0  0
M  RAD  2  34   2  58   2
M  END
$$$$
