
 OpenBabel02052520093D

 72 73  0  0  0  0  0  0  0  0999 V2000
    3.9955    2.7740   -0.8720 C   0  0  0  0  0  0  0  0  0  0  0  0
    4.7150    1.9878   -1.1253 H   0  0  0  0  0  0  0  0  0  0  0  0
    3.7513    3.3108   -1.7934 H   0  0  0  0  0  0  0  0  0  0  0  0
    2.6809    1.7326    1.0255 N   0  0  0  0  0  0  0  0  0  0  0  0
    3.4685    1.6101    1.6534 H   0  0  0  0  0  0  0  0  0  0  0  0
    2.7529    2.2004   -0.2775 C   0  0  0  0  0  0  0  0  0  0  0  0
    1.4424    1.2067    1.2198 C   0  0  0  0  0  0  0  0  0  0  0  0
    1.1045    0.7485    2.1362 H   0  0  0  0  0  0  0  0  0  0  0  0
    0.7096    1.3326    0.1304 N   0  0  0  0  0  0  0  0  0  0  0  0
    1.5122    1.9542   -0.8082 C   0  0  0  0  0  0  0  0  0  0  0  0
    1.1411    2.1540   -1.8015 H   0  0  0  0  0  0  0  0  0  0  0  0
    1.2337   -0.5054   -3.4829 C   0  0  0  0  0  0  0  0  0  0  0  0
    2.2041   -0.3175   -3.0054 H   0  0  0  0  0  0  0  0  0  0  0  0
    1.3453   -1.3864   -4.1212 H   0  0  0  0  0  0  0  0  0  0  0  0
    0.2198   -0.7749   -2.3834 C   0  0  0  0  0  0  0  0  0  0  0  0
   -0.5824    0.1698   -2.0896 O   0  0  0  0  0  0  0  0  0  0  0  0
    0.2606   -1.8973   -1.8086 O   0  0  0  0  0  0  0  0  0  0  0  0
   -2.0642    6.1944    0.6270 C   0  0  0  0  0  0  0  0  0  0  0  0
   -2.7431    6.5259    1.4234 H   0  0  0  0  0  0  0  0  0  0  0  0
   -1.0401    6.3435    0.9800 H   0  0  0  0  0  0  0  0  0  0  0  0
   -3.4771    4.2610   -0.2024 N   0  0  0  0  0  0  0  0  0  0  0  0
   -4.3169    4.7979   -0.3654 H   0  0  0  0  0  0  0  0  0  0  0  0
   -2.2718    4.7581    0.2779 C   0  0  0  0  0  0  0  0  0  0  0  0
   -3.3408    2.9295   -0.4229 C   0  0  0  0  0  0  0  0  0  0  0  0
   -4.1175    2.2735   -0.7887 H   0  0  0  0  0  0  0  0  0  0  0  0
   -2.1160    2.5398   -0.1124 N   0  0  0  0  0  0  0  0  0  0  0  0
   -1.4434    3.6679    0.3235 C   0  0  0  0  0  0  0  0  0  0  0  0
   -0.4112    3.6114    0.6310 H   0  0  0  0  0  0  0  0  0  0  0  0
   -4.5439   -3.9047    0.1967 C   0  0  0  0  0  0  0  0  0  0  0  0
   -4.4958   -4.6855   -0.5686 H   0  0  0  0  0  0  0  0  0  0  0  0
   -5.1353   -4.2801    1.0348 H   0  0  0  0  0  0  0  0  0  0  0  0
   -3.2041   -3.6099    0.6811 N   0  0  0  0  0  0  0  0  0  0  0  0
   -3.1021   -3.2265    1.6204 H   0  0  0  0  0  0  0  0  0  0  0  0
   -2.1614   -3.3670   -0.1221 C   0  0  0  0  0  3  0  0  0  0  0  0
   -2.2761   -3.4838   -1.4717 N   0  0  0  0  0  0  0  0  0  0  0  0
   -3.1384   -3.0901   -1.8370 H   0  0  0  0  0  0  0  0  0  0  0  0
   -1.4616   -3.1040   -1.9554 H   0  0  0  0  0  0  0  0  0  0  0  0
   -0.9646   -3.1032    0.4138 N   0  0  0  0  0  0  0  0  0  0  0  0
   -0.9984   -2.8016    1.3939 H   0  0  0  0  0  0  0  0  0  0  0  0
   -0.3446   -2.5717   -0.2045 H   0  0  0  0  0  0  0  0  0  0  0  0
   -1.3497    0.5136   -0.2640 Fe  0  0  0  0  0  0  0  0  0  0  0  0
   -3.1370    0.1396    2.8569 C   0  0  0  0  0  0  0  0  0  0  0  0
   -2.7254    1.1295    3.0770 H   0  0  0  0  0  0  0  0  0  0  0  0
   -3.8491    0.2517    2.0300 H   0  0  0  0  0  0  0  0  0  0  0  0
   -2.0398   -0.7947    2.3810 C   0  0  0  0  0  0  0  0  0  0  0  0
   -2.0047   -1.9803    2.7725 O   0  0  0  0  0  0  0  0  0  0  0  0
   -1.1769   -0.3013    1.5533 O   0  0  0  0  0  0  0  0  0  0  0  0
    6.4675    0.3283    0.2752 N   0  0  0  0  0  0  0  0  0  0  0  0
    1.8641   -2.2450    1.7189 C   0  0  0  0  0  0  0  0  0  0  0  0
    1.8531   -2.4494    2.7919 H   0  0  0  0  0  0  0  0  0  0  0  0
    1.7834   -3.1858    1.1717 H   0  0  0  0  0  0  0  0  0  0  0  0
    1.0134   -1.6016    1.4694 H   0  0  0  0  0  0  0  0  0  0  0  0
    4.6776   -0.8297   -0.2692 C   0  0  0  0  0  0  0  0  0  0  0  0
    5.3986   -0.6588   -1.4311 N   0  0  0  0  0  0  0  0  0  0  0  0
    6.4707    0.0318   -1.0691 C   0  0  0  0  0  0  0  0  0  0  0  0
    7.2698    0.3463   -1.7256 H   0  0  0  0  0  0  0  0  0  0  0  0
    3.1199   -1.5905    1.3528 N   0  0  0  0  0  0  0  0  0  0  0  0
    3.8252   -0.9222    2.2943 C   0  0  0  0  0  3  0  0  0  0  0  0
    3.4210   -0.9884    3.3023 H   0  0  0  0  0  0  0  0  0  0  0  0
    4.9123   -0.1975    2.1191 N   0  0  0  0  0  0  0  0  0  0  0  0
    5.3264   -0.2291    0.8036 C   0  0  0  0  0  0  0  0  0  0  0  0
    3.4377   -1.5090   -0.0584 C   0  0  0  0  0  0  0  0  0  0  0  0
    2.9895   -2.5499   -0.8884 N   0  0  0  0  0  0  0  0  0  0  0  0
    3.6490   -2.6961   -1.6487 H   0  0  0  0  0  0  0  0  0  0  0  0
    2.0526   -2.4059   -1.2763 H   0  0  0  0  0  0  0  0  0  0  0  0
   -2.2180    6.8530   -0.2377 H   0  0  0  0  0  0  0  0  0  0  0  0
    4.4851    3.4799   -0.1901 H   0  0  0  0  0  0  0  0  0  0  0  0
    7.1851    0.8066    0.8007 H   0  0  0  0  0  0  0  0  0  0  0  0
   -3.6488   -0.2696    3.7306 H   0  0  0  0  0  0  0  0  0  0  0  0
   -5.0256   -3.0100   -0.2159 H   0  0  0  0  0  0  0  0  0  0  0  0
    0.9548    0.3656   -4.0795 H   0  0  0  0  0  0  0  0  0  0  0  0
   -3.8207   -0.4418   -0.8489 Br  0  0  0  0  0  0  0  0  0  0  0  0
  1  6  1  0  0  0  0
  1 67  1  0  0  0  0
  2  1  1  0  0  0  0
  3  1  1  0  0  0  0
  4  7  1  0  0  0  0
  4  5  1  0  0  0  0
  6  4  1  0  0  0  0
  7  8  1  0  0  0  0
  9  7  2  0  0  0  0
  9 41  9  0  0  0  0
 10  6  2  0  0  0  0
 10  9  1  0  0  0  0
 11 10  1  0  0  0  0
 12 13  1  0  0  0  0
 12 15  1  0  0  0  0
 14 12  1  0  0  0  0
 15 16  1  0  0  0  0
 15 17  2  0  0  0  0
 16 41  1  0  0  0  0
 18 20  1  0  0  0  0
 18 19  1  0  0  0  0
 21 23  1  0  0  0  0
 22 21  1  0  0  0  0
 23 27  2  0  0  0  0
 23 18  1  0  0  0  0
 24 21  1  0  0  0  0
 24 26  2  0  0  0  0
 25 24  1  0  0  0  0
 26 27  1  0  0  0  0
 26 41  9  0  0  0  0
 27 28  1  0  0  0  0
 29 32  1  0  0  0  0
 29 31  1  0  0  0  0
 30 29  1  0  0  0  0
 32 33  1  0  0  0  0
 34 38  1  0  0  0  0
 34 32  1  0  0  0  0
 35 34  1  0  0  0  0
 36 35  1  0  0  0  0
 37 35  1  0  0  0  0
 38 39  1  0  0  0  0
 40 38  1  0  0  0  0
 41 47  1  0  0  0  0
 42 43  1  0  0  0  0
 42 69  1  0  0  0  0
 44 42  1  0  0  0  0
 45 46  2  0  0  0  0
 45 42  1  0  0  0  0
 47 45  1  0  0  0  0
 48 68  1  0  0  0  0
 48 61  1  0  0  0  0
 49 50  1  0  0  0  0
 51 49  1  0  0  0  0
 52 49  1  0  0  0  0
 53 62  2  0  0  0  0
 53 61  1  0  0  0  0
 54 55  2  0  0  0  0
 54 53  1  0  0  0  0
 55 48  1  0  0  0  0
 56 55  1  0  0  0  0
 57 49  1  0  0  0  0
 57 58  1  0  0  0  0
 58 59  1  0  0  0  0
 60 58  1  0  0  0  0
 61 60  2  0  0  0  0
 62 57  1  0  0  0  0
 63 62  1  0  0  0  0
 64 63  1  0  0  0  0
 65 63  1  0  0  0  0
 66 18  1  0  0  0  0
 70 29  1  0  0  0  0
 71 12  1  0  0  0  0
 72 41  1  0  0  0  0
M  RAD  2  34   2  58   2
M  END
$$$$
