
 OpenBabel02052520093D

 68 69  0  0  0  0  0  0  0  0999 V2000
    3.7431   -2.7129   -1.5748 C   0  0  0  0  0  0  0  0  0  0  0  0
    4.3390   -2.4428   -0.6960 H   0  0  0  0  0  0  0  0  0  0  0  0
    3.5214   -3.7826   -1.5146 H   0  0  0  0  0  0  0  0  0  0  0  0
    2.4112   -0.6004   -1.9986 N   0  0  0  0  0  0  0  0  0  0  0  0
    3.2048   -0.0068   -2.2137 H   0  0  0  0  0  0  0  0  0  0  0  0
    2.4699   -1.9363   -1.6354 C   0  0  0  0  0  0  0  0  0  0  0  0
    1.1184   -0.1883   -1.9080 C   0  0  0  0  0  0  0  0  0  0  0  0
    0.7816    0.8186   -2.0961 H   0  0  0  0  0  0  0  0  0  0  0  0
    0.3407   -1.1842   -1.5096 N   0  0  0  0  0  0  0  0  0  0  0  0
    1.1746   -2.2777   -1.3431 C   0  0  0  0  0  0  0  0  0  0  0  0
    0.7850   -3.2277   -1.0094 H   0  0  0  0  0  0  0  0  0  0  0  0
    1.2864   -2.2621    2.2033 C   0  0  0  0  0  0  0  0  0  0  0  0
    1.6005   -2.1530    3.2468 H   0  0  0  0  0  0  0  0  0  0  0  0
    0.8886   -3.2643    2.0330 H   0  0  0  0  0  0  0  0  0  0  0  0
    0.2616   -1.1971    1.8452 C   0  0  0  0  0  0  0  0  0  0  0  0
   -0.8229   -1.5402    1.3050 O   0  0  0  0  0  0  0  0  0  0  0  0
    0.5823    0.0154    2.1110 O   0  0  0  0  0  0  0  0  0  0  0  0
   -7.0749   -2.1700   -0.5425 C   0  0  0  0  0  0  0  0  0  0  0  0
   -7.6627   -1.7249    0.2709 H   0  0  0  0  0  0  0  0  0  0  0  0
   -7.3126   -1.6266   -1.4609 H   0  0  0  0  0  0  0  0  0  0  0  0
   -5.0071   -2.6646    0.8352 N   0  0  0  0  0  0  0  0  0  0  0  0
   -5.4780   -3.2025    1.5484 H   0  0  0  0  0  0  0  0  0  0  0  0
   -5.6077   -2.0919   -0.2783 C   0  0  0  0  0  0  0  0  0  0  0  0
   -3.6688   -2.4096    0.7803 C   0  0  0  0  0  0  0  0  0  0  0  0
   -2.9414   -2.7305    1.5112 H   0  0  0  0  0  0  0  0  0  0  0  0
   -3.3802   -1.7042   -0.3008 N   0  0  0  0  0  0  0  0  0  0  0  0
   -4.5770   -1.5007   -0.9646 C   0  0  0  0  0  0  0  0  0  0  0  0
   -4.6075   -0.9221   -1.8761 H   0  0  0  0  0  0  0  0  0  0  0  0
   -4.7695    1.3256    1.4514 C   0  0  0  0  0  0  0  0  0  0  0  0
   -4.7115    1.0742    2.5152 H   0  0  0  0  0  0  0  0  0  0  0  0
   -5.7522    1.7583    1.2533 H   0  0  0  0  0  0  0  0  0  0  0  0
   -3.7631    2.3235    1.1220 N   0  0  0  0  0  0  0  0  0  0  0  0
   -3.9574    2.9103    0.3059 H   0  0  0  0  0  0  0  0  0  0  0  0
   -2.4560    2.1452    1.3807 C   0  0  0  0  0  3  0  0  0  0  0  0
   -2.0408    1.0876    2.0982 N   0  0  0  0  0  0  0  0  0  0  0  0
   -2.5536    0.2230    1.9707 H   0  0  0  0  0  0  0  0  0  0  0  0
   -1.0291    0.8902    2.1504 H   0  0  0  0  0  0  0  0  0  0  0  0
   -1.5789    3.0970    1.0118 N   0  0  0  0  0  0  0  0  0  0  0  0
   -1.9285    3.7654    0.3284 H   0  0  0  0  0  0  0  0  0  0  0  0
   -0.6196    2.7824    0.8192 H   0  0  0  0  0  0  0  0  0  0  0  0
   -1.5166   -0.8134   -0.6658 Fe  0  0  2  0  0  0  0  0  0  0  0  0
    0.9956    1.9921    0.3748 O   0  0  0  0  0  0  0  0  0  0  0  0
    6.4284   -0.4315   -0.8825 N   0  0  0  0  0  0  0  0  0  0  0  0
    2.1944    2.5546    0.8662 C   0  0  0  0  0  0  0  0  0  0  0  0
    2.2615    3.5675    0.4630 H   0  0  0  0  0  0  0  0  0  0  0  0
    2.2146    2.5922    1.9587 H   0  0  0  0  0  0  0  0  0  0  0  0
    0.8360    1.1438    0.8700 H   0  0  0  0  0  0  0  0  0  0  0  0
    4.8960   -0.0088    0.6441 C   0  0  0  0  0  0  0  0  0  0  0  0
    5.6632   -1.0461    1.1350 N   0  0  0  0  0  0  0  0  0  0  0  0
    6.5756   -1.2653    0.1980 C   0  0  0  0  0  0  0  0  0  0  0  0
    7.3553   -2.0129    0.2441 H   0  0  0  0  0  0  0  0  0  0  0  0
    3.3759    1.8114    0.4430 N   0  0  0  0  0  0  0  0  0  0  0  0
    3.8765    2.0438   -0.8044 C   0  0  0  0  0  3  0  0  0  0  0  0
    3.4059    2.8671   -1.3378 H   0  0  0  0  0  0  0  0  0  0  0  0
    4.8373    1.3906   -1.4067 N   0  0  0  0  0  0  0  0  0  0  0  0
    5.3581    0.3901   -0.6076 C   0  0  0  0  0  0  0  0  0  0  0  0
    3.7691    0.6404    1.2106 C   0  0  0  0  0  0  0  0  0  0  0  0
    3.4208    0.6096    2.5684 N   0  0  0  0  0  0  0  0  0  0  0  0
    4.0581    0.0006    3.0743 H   0  0  0  0  0  0  0  0  0  0  0  0
    2.4514    0.3052    2.7081 H   0  0  0  0  0  0  0  0  0  0  0  0
   -4.6605    0.4156    0.8488 H   0  0  0  0  0  0  0  0  0  0  0  0
    4.3620   -2.5477   -2.4651 H   0  0  0  0  0  0  0  0  0  0  0  0
    7.0117   -0.3838   -1.7054 H   0  0  0  0  0  0  0  0  0  0  0  0
   -7.4144   -3.2060   -0.6704 H   0  0  0  0  0  0  0  0  0  0  0  0
    2.1725   -2.1102    1.5759 H   0  0  0  0  0  0  0  0  0  0  0  0
   -2.1297    0.9577   -1.4729 N   0  0  0  0  0  0  0  0  0  0  0  0
   -2.6159    1.9963   -1.7591 C   0  0  0  0  0  0  0  0  0  0  0  0
   -3.3124    3.4791   -2.0086 S   0  0  0  0  0  0  0  0  0  0  0  0
  1  3  1  0  0  0  0
  1  2  1  0  0  0  0
  4  7  1  0  0  0  0
  4  6  1  0  0  0  0
  5  4  1  0  0  0  0
  6  1  1  0  0  0  0
  6 10  2  0  0  0  0
  7  9  2  0  0  0  0
  8  7  1  0  0  0  0
  9 10  1  0  0  0  0
  9 41  9  0  0  0  0
 10 11  1  0  0  0  0
 12 13  1  0  0  0  0
 14 12  1  0  0  0  0
 15 17  2  0  0  0  0
 15 12  1  0  0  0  0
 16 15  1  0  0  0  0
 18 23  1  0  0  0  0
 18 19  1  0  0  0  0
 20 18  1  0  0  0  0
 21 22  1  0  0  0  0
 23 21  1  0  0  0  0
 24 21  1  0  0  0  0
 24 25  1  0  0  0  0
 26 24  2  0  0  0  0
 26 41  9  0  0  0  0
 27 26  1  0  0  0  0
 27 23  2  0  0  0  0
 28 27  1  0  0  0  0
 29 30  1  0  0  0  0
 31 29  1  0  0  0  0
 32 34  1  0  0  0  0
 32 29  1  0  0  0  0
 33 32  1  0  0  0  0
 34 35  1  0  0  0  0
 35 37  1  0  0  0  0
 36 35  1  0  0  0  0
 38 34  1  0  0  0  0
 39 38  1  0  0  0  0
 40 38  1  0  0  0  0
 41 66  1  1  0  0  0
 41 16  1  0  0  0  0
 42 44  1  0  0  0  0
 42 47  1  0  0  0  0
 43 56  1  0  0  0  0
 43 50  1  0  0  0  0
 44 46  1  0  0  0  0
 45 44  1  0  0  0  0
 48 49  1  0  0  0  0
 48 57  2  0  0  0  0
 50 51  1  0  0  0  0
 50 49  2  0  0  0  0
 52 44  1  0  0  0  0
 52 57  1  0  0  0  0
 53 52  1  0  0  0  0
 54 53  1  0  0  0  0
 55 53  1  0  0  0  0
 55 56  2  0  0  0  0
 56 48  1  0  0  0  0
 57 58  1  0  0  0  0
 58 60  1  0  0  0  0
 58 59  1  0  0  0  0
 61 29  1  0  0  0  0
 62  1  1  0  0  0  0
 63 43  1  0  0  0  0
 64 18  1  0  0  0  0
 65 12  1  0  0  0  0
 67 66  2  0  0  0  0
 68 67  2  0  0  0  0
M  RAD  2  34   2  53   2
M  END
$$$$
