
 OpenBabel02052520093D

 74 76  0  0  0  0  0  0  0  0999 V2000
   -4.1237    2.6783    1.4438 C   0  0  0  0  0  0  0  0  0  0  0  0
   -4.9662    1.9780    1.4464 H   0  0  0  0  0  0  0  0  0  0  0  0
   -3.8479    2.8716    2.4840 H   0  0  0  0  0  0  0  0  0  0  0  0
   -2.9958    1.7659   -0.6304 N   0  0  0  0  0  0  0  0  0  0  0  0
   -3.8354    1.6943   -1.1929 H   0  0  0  0  0  0  0  0  0  0  0  0
   -2.9509    2.1194    0.7110 C   0  0  0  0  0  0  0  0  0  0  0  0
   -1.7807    1.2656   -0.9785 C   0  0  0  0  0  0  0  0  0  0  0  0
   -1.5265    0.8863   -1.9550 H   0  0  0  0  0  0  0  0  0  0  0  0
   -0.9559    1.2990    0.0517 N   0  0  0  0  0  0  0  0  0  0  0  0
   -1.6701    1.8322    1.1092 C   0  0  0  0  0  0  0  0  0  0  0  0
   -1.1996    1.9582    2.0722 H   0  0  0  0  0  0  0  0  0  0  0  0
    1.0013   -0.6771    4.0285 C   0  0  0  0  0  0  0  0  0  0  0  0
    0.3312   -1.5018    4.2852 H   0  0  0  0  0  0  0  0  0  0  0  0
    2.0364   -1.0121    4.1705 H   0  0  0  0  0  0  0  0  0  0  0  0
    0.8420   -0.2884    2.5755 C   0  0  0  0  0  0  0  0  0  0  0  0
    1.0607    0.9109    2.2241 O   0  0  0  0  0  0  0  0  0  0  0  0
    0.5495   -1.1793    1.7153 O   0  0  0  0  0  0  0  0  0  0  0  0
    1.9453    6.2282   -0.9405 C   0  0  0  0  0  0  0  0  0  0  0  0
    2.5132    6.5536   -1.8218 H   0  0  0  0  0  0  0  0  0  0  0  0
    0.8894    6.4417   -1.1282 H   0  0  0  0  0  0  0  0  0  0  0  0
    3.3578    4.1987   -0.3888 N   0  0  0  0  0  0  0  0  0  0  0  0
    4.2384    4.6897   -0.3307 H   0  0  0  0  0  0  0  0  0  0  0  0
    2.1230    4.7717   -0.6667 C   0  0  0  0  0  0  0  0  0  0  0  0
    3.1784    2.8683   -0.1820 C   0  0  0  0  0  0  0  0  0  0  0  0
    3.9608    2.1660    0.0631 H   0  0  0  0  0  0  0  0  0  0  0  0
    1.9041    2.5543   -0.3149 N   0  0  0  0  0  0  0  0  0  0  0  0
    1.2379    3.7256   -0.6133 C   0  0  0  0  0  0  0  0  0  0  0  0
    0.1678    3.7314   -0.7561 H   0  0  0  0  0  0  0  0  0  0  0  0
    4.3339   -3.5594   -0.8569 C   0  0  0  0  0  0  0  0  0  0  0  0
    4.4734   -4.3584   -0.1220 H   0  0  0  0  0  0  0  0  0  0  0  0
    4.8810   -3.8360   -1.7608 H   0  0  0  0  0  0  0  0  0  0  0  0
    2.9267   -3.4346   -1.2077 N   0  0  0  0  0  0  0  0  0  0  0  0
    2.6974   -3.1175   -2.1472 H   0  0  0  0  0  0  0  0  0  0  0  0
    1.9311   -3.2751   -0.3163 C   0  0  0  0  0  3  0  0  0  0  0  0
    2.1439   -3.3752    1.0129 N   0  0  0  0  0  0  0  0  0  0  0  0
    3.0961   -3.2184    1.3345 H   0  0  0  0  0  0  0  0  0  0  0  0
    1.4775   -2.8115    1.5539 H   0  0  0  0  0  0  0  0  0  0  0  0
    0.6901   -3.1183   -0.7924 N   0  0  0  0  0  0  0  0  0  0  0  0
    0.6492   -2.7581   -1.7515 H   0  0  0  0  0  0  0  0  0  0  0  0
   -0.0649   -2.7900   -0.1854 H   0  0  0  0  0  0  0  0  0  0  0  0
    1.1255    0.5623    0.1144 Fe  0  0  0  0  0  0  0  0  0  0  0  0
    2.6908    0.2700   -3.0530 C   0  0  0  0  0  0  0  0  0  0  0  0
    2.3243    1.2933   -3.1774 H   0  0  0  0  0  0  0  0  0  0  0  0
    3.4211    0.2824   -2.2355 H   0  0  0  0  0  0  0  0  0  0  0  0
    1.5576   -0.6505   -2.6325 C   0  0  0  0  0  0  0  0  0  0  0  0
    1.4543   -1.7898   -3.1392 O   0  0  0  0  0  0  0  0  0  0  0  0
    0.7507   -0.2061   -1.7289 O   0  0  0  0  0  0  0  0  0  0  0  0
   -6.2427   -0.2255    0.6540 N   0  0  0  0  0  0  0  0  0  0  0  0
   -2.0283   -2.0276   -2.3495 C   0  0  0  0  0  0  0  0  0  0  0  0
   -2.2786   -1.9506   -3.4098 H   0  0  0  0  0  0  0  0  0  0  0  0
   -1.8566   -3.0768   -2.0962 H   0  0  0  0  0  0  0  0  0  0  0  0
   -1.1167   -1.4594   -2.1503 H   0  0  0  0  0  0  0  0  0  0  0  0
   -4.2511   -1.1570    0.5242 C   0  0  0  0  0  0  0  0  0  0  0  0
   -4.5883   -1.1460    1.8598 N   0  0  0  0  0  0  0  0  0  0  0  0
   -5.7894   -0.5902    1.9029 C   0  0  0  0  0  0  0  0  0  0  0  0
   -6.3770   -0.4291    2.7959 H   0  0  0  0  0  0  0  0  0  0  0  0
   -3.1446   -1.5077   -1.5543 N   0  0  0  0  0  0  0  0  0  0  0  0
   -4.1814   -0.8849   -2.1693 C   0  0  0  0  0  3  0  0  0  0  0  0
   -4.0917   -0.8081   -3.2503 H   0  0  0  0  0  0  0  0  0  0  0  0
   -5.2542   -0.3715   -1.6050 N   0  0  0  0  0  0  0  0  0  0  0  0
   -5.2628   -0.5844   -0.2426 C   0  0  0  0  0  0  0  0  0  0  0  0
   -3.0903   -1.6557   -0.1299 C   0  0  0  0  0  0  0  0  0  0  0  0
   -1.8569   -1.9977    0.4594 N   0  0  0  0  0  0  0  0  0  0  0  0
   -2.0192   -2.5042    1.3272 H   0  0  0  0  0  0  0  0  0  0  0  0
   -1.2818   -1.1875    0.7154 H   0  0  0  0  0  0  0  0  0  0  0  0
    2.2641    6.8465   -0.0914 H   0  0  0  0  0  0  0  0  0  0  0  0
   -4.4685    3.6234    1.0044 H   0  0  0  0  0  0  0  0  0  0  0  0
   -7.1359    0.1828    0.4182 H   0  0  0  0  0  0  0  0  0  0  0  0
    3.1653   -0.0864   -3.9699 H   0  0  0  0  0  0  0  0  0  0  0  0
    4.7492   -2.6308   -0.4530 H   0  0  0  0  0  0  0  0  0  0  0  0
    0.8254    0.1805    4.6816 H   0  0  0  0  0  0  0  0  0  0  0  0
    3.1381   -0.2105    0.2708 N   0  0  0  0  0  0  0  0  0  0  0  0
    3.8508   -0.6658    1.1023 C   0  0  0  0  0  0  0  0  0  0  0  0
    4.8053   -1.3639    2.2366 S   0  0  0  0  0  0  0  0  0  0  0  0
  1  2  1  0  0  0  0
  1  3  1  0  0  0  0
  4  6  1  0  0  0  0
  5  4  1  0  0  0  0
  6 10  2  0  0  0  0
  6  1  1  0  0  0  0
  7  4  1  0  0  0  0
  7  9  2  0  0  0  0
  8  7  1  0  0  0  0
  9 10  1  0  0  0  0
  9 41  9  0  0  0  0
 10 11  1  0  0  0  0
 12 14  1  0  0  0  0
 12 13  1  0  0  0  0
 12 71  1  0  0  0  0
 15 12  1  0  0  0  0
 16 15  1  0  0  0  0
 17 15  2  0  0  0  0
 17 41  9  0  0  0  0
 18 23  1  0  0  0  0
 18 66  1  0  0  0  0
 19 18  1  0  0  0  0
 20 18  1  0  0  0  0
 21 22  1  0  0  0  0
 21 24  1  0  0  0  0
 23 27  2  0  0  0  0
 23 21  1  0  0  0  0
 24 25  1  0  0  0  0
 26 24  2  0  0  0  0
 26 41  9  0  0  0  0
 27 26  1  0  0  0  0
 28 27  1  0  0  0  0
 29 70  1  0  0  0  0
 29 30  1  0  0  0  0
 31 29  1  0  0  0  0
 32 29  1  0  0  0  0
 32 34  1  0  0  0  0
 33 32  1  0  0  0  0
 34 35  1  0  0  0  0
 35 36  1  0  0  0  0
 35 37  1  0  0  0  0
 38 34  1  0  0  0  0
 38 40  1  0  0  0  0
 39 38  1  0  0  0  0
 41 72  1  0  0  0  0
 41 16  1  0  0  0  0
 42 45  1  0  0  0  0
 42 44  1  0  0  0  0
 43 42  1  0  0  0  0
 45 47  1  0  0  0  0
 46 45  2  0  0  0  0
 47 41  1  0  0  0  0
 48 55  1  0  0  0  0
 49 52  1  0  0  0  0
 49 51  1  0  0  0  0
 49 57  1  0  0  0  0
 50 49  1  0  0  0  0
 53 54  1  0  0  0  0
 54 55  2  0  0  0  0
 55 56  1  0  0  0  0
 57 62  1  0  0  0  0
 58 60  1  0  0  0  0
 58 57  1  0  0  0  0
 59 58  1  0  0  0  0
 60 61  2  0  0  0  0
 61 53  1  0  0  0  0
 61 48  1  0  0  0  0
 62 63  1  0  0  0  0
 62 53  2  0  0  0  0
 63 65  1  0  0  0  0
 63 64  1  0  0  0  0
 67  1  1  0  0  0  0
 68 48  1  0  0  0  0
 69 42  1  0  0  0  0
 72 73  2  0  0  0  0
 73 74  2  0  0  0  0
M  RAD  2  34   2  58   2
M  END
$$$$
