
 OpenBabel02052520093D

 85 88  0  0  0  0  0  0  0  0999 V2000
   -4.4508    5.4855    1.2458 C   0  0  0  0  0  0  0  0  0  0  0  0
   -4.6541    5.1081    2.2519 H   0  0  0  0  0  0  0  0  0  0  0  0
   -3.7544    6.3289    1.3407 H   0  0  0  0  0  0  0  0  0  0  0  0
   -3.5286    4.5676   -0.9285 N   0  0  0  0  0  0  0  0  0  0  0  0
   -3.6179    5.4222   -1.4581 H   0  0  0  0  0  0  0  0  0  0  0  0
   -3.8909    4.3904    0.4004 C   0  0  0  0  0  0  0  0  0  0  0  0
   -3.0643    3.3875   -1.4151 C   0  0  0  0  0  0  0  0  0  0  0  0
   -2.7446    3.2049   -2.4288 H   0  0  0  0  0  0  0  0  0  0  0  0
   -3.1035    2.4669   -0.4696 N   0  0  0  0  0  0  0  0  0  0  0  0
   -3.6139    3.0734    0.6617 C   0  0  0  0  0  0  0  0  0  0  0  0
   -3.7426    2.5149    1.5754 H   0  0  0  0  0  0  0  0  0  0  0  0
    8.3842    3.6035   -0.4229 C   0  0  0  0  0  0  0  0  0  0  0  0
    7.5686    4.2738   -0.1294 H   0  0  0  0  0  0  0  0  0  0  0  0
    9.1379    3.5811    0.3760 H   0  0  0  0  0  0  0  0  0  0  0  0
    7.8688    2.2803   -0.7317 N   0  0  0  0  0  0  0  0  0  0  0  0
    8.2067    1.8063   -1.5563 H   0  0  0  0  0  0  0  0  0  0  0  0
    7.0722    1.5587    0.0883 C   0  0  0  0  0  3  0  0  0  0  0  0
    6.7561    2.0046    1.3079 N   0  0  0  0  0  0  0  0  0  0  0  0
    5.9783    1.5101    1.7905 H   0  0  0  0  0  0  0  0  0  0  0  0
    7.1930    2.8176    1.7107 H   0  0  0  0  0  0  0  0  0  0  0  0
    6.6100    0.3695   -0.3101 N   0  0  0  0  0  0  0  0  0  0  0  0
    6.3439    0.2264   -1.2882 H   0  0  0  0  0  0  0  0  0  0  0  0
    5.8915   -0.0134    0.3368 H   0  0  0  0  0  0  0  0  0  0  0  0
   -7.6216   -1.9456    0.2603 C   0  0  0  0  0  0  0  0  0  0  0  0
   -8.4230   -1.4103    0.7865 H   0  0  0  0  0  0  0  0  0  0  0  0
   -7.8694   -1.9522   -0.8045 H   0  0  0  0  0  0  0  0  0  0  0  0
   -5.6992   -1.1509    1.7064 N   0  0  0  0  0  0  0  0  0  0  0  0
   -6.0846   -1.4642    2.5856 H   0  0  0  0  0  0  0  0  0  0  0  0
   -6.2914   -1.2979    0.4588 C   0  0  0  0  0  0  0  0  0  0  0  0
   -4.5009   -0.5255    1.5377 C   0  0  0  0  0  0  0  0  0  0  0  0
   -3.8166   -0.2997    2.3413 H   0  0  0  0  0  0  0  0  0  0  0  0
   -4.2944   -0.2648    0.2616 N   0  0  0  0  0  0  0  0  0  0  0  0
   -5.3989   -0.7375   -0.4208 C   0  0  0  0  0  0  0  0  0  0  0  0
   -5.4509   -0.6309   -1.4946 H   0  0  0  0  0  0  0  0  0  0  0  0
    0.9104   -0.9992    3.5871 C   0  0  0  0  0  0  0  0  0  0  0  0
    0.5950   -1.0277    4.6385 H   0  0  0  0  0  0  0  0  0  0  0  0
    0.9700   -2.0257    3.2055 H   0  0  0  0  0  0  0  0  0  0  0  0
    0.1321    1.1814    2.5755 N   0  0  0  0  0  0  0  0  0  0  0  0
    1.0320    1.6398    2.7272 H   0  0  0  0  0  0  0  0  0  0  0  0
   -0.0230   -0.1874    2.7488 C   0  0  0  0  0  0  0  0  0  0  0  0
   -0.7842    1.5965    1.6638 C   0  0  0  0  0  0  0  0  0  0  0  0
   -0.8406    2.6027    1.2782 H   0  0  0  0  0  0  0  0  0  0  0  0
   -1.5480    0.5916    1.2626 N   0  0  0  0  0  0  0  0  0  0  0  0
   -1.0865   -0.5271    1.9479 C   0  0  0  0  0  0  0  0  0  0  0  0
   -1.5014   -1.5074    1.7701 H   0  0  0  0  0  0  0  0  0  0  0  0
   -2.4981    0.6000   -0.7460 Fe  0  2  0  0  0  0  0  0  0  0  0  0
   -0.4972    1.3014   -1.5626 O   0  0  0  0  0  0  0  0  0  0  0  0
   -1.0046   -3.3041   -0.6921 C   0  0  0  0  0  0  0  0  0  0  0  0
   -2.0850   -2.4495   -0.6773 C   0  0  0  0  0  0  0  0  0  0  0  0
    0.0676   -2.5424   -1.1301 N   0  0  0  0  0  0  0  0  0  0  0  0
   -0.3819   -1.2776   -1.2899 C   0  0  1  0  0  3  0  0  0  0  0  0
   -1.6772   -1.1835   -1.0328 N   0  0  0  0  0  0  0  0  0  0  0  0
   -3.1138   -2.6392   -0.4139 H   0  0  0  0  0  0  0  0  0  0  0  0
    1.0524   -2.8217   -0.9125 H   0  0  0  0  0  0  0  0  0  0  0  0
   -0.8613   -4.7292   -0.2270 C   0  0  0  0  0  0  0  0  0  0  0  0
   -1.3016   -5.4162   -0.9627 H   0  0  0  0  0  0  0  0  0  0  0  0
   -1.4481   -4.8292    0.6929 H   0  0  0  0  0  0  0  0  0  0  0  0
    1.3101   -4.0895    0.9441 C   0  0  0  0  0  0  0  0  0  0  0  0
    0.9583   -3.9682    2.1239 O   0  5  0  0  0  0  0  0  0  0  0  0
    2.1521   -3.3601    0.2922 O   0  0  0  0  0  0  0  0  0  0  0  0
    0.5943   -5.1547    0.0736 C   0  0  0  0  0  0  0  0  0  0  0  0
    1.1480   -5.2997   -0.8601 H   0  0  0  0  0  0  0  0  0  0  0  0
    2.8908    1.5502    1.9067 O   0  5  0  0  0  0  0  0  0  0  0  0
    3.5807    0.7281    1.2707 C   0  0  0  0  0  0  0  0  0  0  0  0
    4.7237    0.2821    1.6038 O   0  0  0  0  0  0  0  0  0  0  0  0
    3.0316    0.2367   -0.1296 C   0  0  2  0  0  0  0  0  0  0  0  0
    3.4406    0.9234   -0.8802 H   0  0  0  0  0  0  0  0  0  0  0  0
    1.5152    0.3198   -0.0835 C   0  0  0  0  0  0  0  0  0  0  0  0
    1.1114   -0.4288    0.5985 H   0  0  0  0  0  0  0  0  0  0  0  0
    1.2242    1.3087    0.2602 H   0  0  0  0  0  0  0  0  0  0  0  0
    0.5738    0.1955   -1.6793 S   0  0  2  0  0  0  0  0  0  0  0  0
    3.4691   -1.0947   -0.4997 N   0  0  0  0  0  0  0  0  0  0  0  0
    3.0797   -1.8888    0.0324 H   0  0  0  0  0  0  0  0  0  0  0  0
    4.2935   -1.3469   -1.5405 C   0  0  0  0  0  0  0  0  0  0  0  0
    4.8177   -0.4537   -2.2333 O   0  0  0  0  0  0  0  0  0  0  0  0
    4.5782   -2.8142   -1.8057 C   0  0  0  0  0  0  0  0  0  0  0  0
    4.5006   -2.9909   -2.8827 H   0  0  0  0  0  0  0  0  0  0  0  0
    3.9039   -3.4776   -1.2588 H   0  0  0  0  0  0  0  0  0  0  0  0
   -5.3932    5.8760    0.8401 H   0  0  0  0  0  0  0  0  0  0  0  0
    8.8501    4.0132   -1.3208 H   0  0  0  0  0  0  0  0  0  0  0  0
   -7.6295   -2.9858    0.6115 H   0  0  0  0  0  0  0  0  0  0  0  0
    1.9152   -0.5627    3.5510 H   0  0  0  0  0  0  0  0  0  0  0  0
    0.5662   -6.1094    0.6086 H   0  0  0  0  0  0  0  0  0  0  0  0
    5.6131   -3.0288   -1.5135 H   0  0  0  0  0  0  0  0  0  0  0  0
   -3.4804    0.5626   -2.9243 Cl  0  0  0  0  0  0  0  0  0  0  0  0
  1  3  1  0  0  0  0
  1  2  1  0  0  0  0
  4  6  1  0  0  0  0
  5  4  1  0  0  0  0
  6 10  2  0  0  0  0
  6  1  1  0  0  0  0
  7  4  1  0  0  0  0
  7  9  2  0  0  0  0
  8  7  1  0  0  0  0
  9 10  1  0  0  0  0
  9 46  9  0  0  0  0
 10 11  1  0  0  0  0
 12 13  1  0  0  0  0
 12 14  1  0  0  0  0
 15 12  1  0  0  0  0
 15 17  1  0  0  0  0
 16 15  1  0  0  0  0
 17 18  1  0  0  0  0
 18 20  1  0  0  0  0
 18 19  1  0  0  0  0
 21 17  1  0  0  0  0
 21 23  1  0  0  0  0
 22 21  1  0  0  0  0
 24 29  1  0  0  0  0
 24 81  1  0  0  0  0
 24 25  1  0  0  0  0
 26 24  1  0  0  0  0
 27 28  1  0  0  0  0
 29 27  1  0  0  0  0
 30 27  1  0  0  0  0
 30 31  1  0  0  0  0
 32 30  2  0  0  0  0
 32 46  9  0  0  0  0
 33 32  1  0  0  0  0
 33 29  2  0  0  0  0
 34 33  1  0  0  0  0
 35 36  1  0  0  0  0
 37 35  1  0  0  0  0
 38 39  1  0  0  0  0
 38 40  1  0  0  0  0
 40 35  1  0  0  0  0
 41 38  1  0  0  0  0
 42 41  1  0  0  0  0
 43 41  2  0  0  0  0
 43 44  1  0  0  0  0
 43 46  9  0  0  0  0
 44 40  2  0  0  0  0
 45 44  1  0  0  0  0
 47 46  9  0  0  0  0
 48 49  2  0  0  0  0
 48 55  1  0  0  0  0
 49 53  1  0  0  0  0
 50 54  1  0  0  0  0
 50 48  1  0  0  0  0
 51 71  1  0  0  0  0
 51 50  1  1  0  0  0
 51 52  1  0  0  0  0
 52 46  1  0  0  0  0
 52 49  1  0  0  0  0
 55 61  1  0  0  0  0
 55 57  1  0  0  0  0
 56 55  1  0  0  0  0
 58 59  1  0  0  0  0
 60 58  2  0  0  0  0
 61 83  1  0  0  0  0
 61 58  1  0  0  0  0
 62 61  1  0  0  0  0
 64 65  2  0  0  0  0
 64 63  1  0  0  0  0
 66 67  1  6  0  0  0
 66 68  1  0  0  0  0
 66 64  1  0  0  0  0
 68 70  1  0  0  0  0
 68 69  1  0  0  0  0
 71 47  2  0  0  0  0
 71 68  1  1  0  0  0
 72 66  1  0  0  0  0
 72 73  1  0  0  0  0
 74 72  1  0  0  0  0
 75 74  2  0  0  0  0
 76 74  1  0  0  0  0
 76 84  1  0  0  0  0
 76 78  1  0  0  0  0
 77 76  1  0  0  0  0
 79  1  1  0  0  0  0
 80 12  1  0  0  0  0
 82 35  1  0  0  0  0
 85 46  1  0  0  0  0
M  RAD  2  17   2  51   2
M  CHG  3  46   2  59  -1  63  -1
M  END
$$$$
