
 OpenBabel02052520093D

 87 90  0  0  0  0  0  0  0  0999 V2000
    6.3918   -3.6835   -0.8269 C   0  0  0  0  0  0  0  0  0  0  0  0
    6.8212   -3.6273    0.1776 H   0  0  0  0  0  0  0  0  0  0  0  0
    6.5149   -4.7116   -1.1911 H   0  0  0  0  0  0  0  0  0  0  0  0
    4.1713   -3.2184   -1.9334 N   0  0  0  0  0  0  0  0  0  0  0  0
    4.5299   -3.2754   -2.8781 H   0  0  0  0  0  0  0  0  0  0  0  0
    4.9616   -3.2644   -0.7922 C   0  0  0  0  0  0  0  0  0  0  0  0
    2.9671   -2.7011   -1.5957 C   0  0  0  0  0  0  0  0  0  0  0  0
    2.1905   -2.4568   -2.3044 H   0  0  0  0  0  0  0  0  0  0  0  0
    2.9130   -2.4354   -0.2972 N   0  0  0  0  0  0  0  0  0  0  0  0
    4.1520   -2.7992    0.2089 C   0  0  0  0  0  0  0  0  0  0  0  0
    4.3891   -2.6584    1.2528 H   0  0  0  0  0  0  0  0  0  0  0  0
   -7.7479   -4.9309    1.1703 C   0  0  0  0  0  0  0  0  0  0  0  0
   -6.8311   -5.5139    1.3359 H   0  0  0  0  0  0  0  0  0  0  0  0
   -8.0281   -4.4301    2.1019 H   0  0  0  0  0  0  0  0  0  0  0  0
   -7.6022   -3.9474    0.1080 N   0  0  0  0  0  0  0  0  0  0  0  0
   -7.8415   -4.2339   -0.8301 H   0  0  0  0  0  0  0  0  0  0  0  0
   -6.8571   -2.8173    0.2302 C   0  0  0  0  0  3  0  0  0  0  0  0
   -6.2072   -2.5558    1.3642 N   0  0  0  0  0  0  0  0  0  0  0  0
   -5.5517   -1.7169    1.3449 H   0  0  0  0  0  0  0  0  0  0  0  0
   -5.9000   -3.3434    1.9180 H   0  0  0  0  0  0  0  0  0  0  0  0
   -6.8470   -1.9452   -0.7780 N   0  0  0  0  0  0  0  0  0  0  0  0
   -7.4752   -2.0535   -1.5600 H   0  0  0  0  0  0  0  0  0  0  0  0
   -6.1802   -1.1662   -0.8610 H   0  0  0  0  0  0  0  0  0  0  0  0
    7.2627    1.1324    2.7603 C   0  0  0  0  0  0  0  0  0  0  0  0
    7.8207    0.3254    3.2528 H   0  0  0  0  0  0  0  0  0  0  0  0
    7.7981    1.3956    1.8442 H   0  0  0  0  0  0  0  0  0  0  0  0
    4.9440    0.3145    3.3759 N   0  0  0  0  0  0  0  0  0  0  0  0
    5.1069    0.2577    4.3709 H   0  0  0  0  0  0  0  0  0  0  0  0
    5.8680    0.7217    2.4225 C   0  0  0  0  0  0  0  0  0  0  0  0
    3.7792    0.0108    2.7397 C   0  0  0  0  0  0  0  0  0  0  0  0
    2.8880   -0.3413    3.2360 H   0  0  0  0  0  0  0  0  0  0  0  0
    3.9039    0.1989    1.4401 N   0  0  0  0  0  0  0  0  0  0  0  0
    5.1963    0.6394    1.2294 C   0  0  0  0  0  0  0  0  0  0  0  0
    5.5453    0.8532    0.2311 H   0  0  0  0  0  0  0  0  0  0  0  0
   -2.1528   -0.0515    3.3829 C   0  0  0  0  0  0  0  0  0  0  0  0
   -2.3359   -0.6485    4.2855 H   0  0  0  0  0  0  0  0  0  0  0  0
   -1.9993    0.9868    3.6909 H   0  0  0  0  0  0  0  0  0  0  0  0
   -0.9072   -1.7970    2.0449 N   0  0  0  0  0  0  0  0  0  0  0  0
   -1.7488   -2.3229    1.7940 H   0  0  0  0  0  0  0  0  0  0  0  0
   -0.9580   -0.5387    2.6299 C   0  0  0  0  0  0  0  0  0  0  0  0
    0.2654   -1.8933    1.3661 C   0  0  0  0  0  0  0  0  0  0  0  0
    0.5594   -2.7371    0.7610 H   0  0  0  0  0  0  0  0  0  0  0  0
    0.9840   -0.7900    1.4983 N   0  0  0  0  0  0  0  0  0  0  0  0
    0.2322    0.0593    2.2961 C   0  0  0  0  0  0  0  0  0  0  0  0
    0.5768    1.0578    2.5223 H   0  0  0  0  0  0  0  0  0  0  0  0
    2.4035   -0.1919   -0.1700 Fe  0  3  0  0  0  0  0  0  0  0  0  0
    0.8336   -0.6087   -1.7052 O   0  0  0  0  0  0  0  0  0  0  0  0
    0.3289    3.6452    0.2062 C   0  0  0  0  0  0  0  0  0  0  0  0
    1.4599    2.9003    0.5108 C   0  0  0  0  0  0  0  0  0  0  0  0
   -0.4058    2.9424   -0.7232 N   0  0  0  0  0  0  0  0  0  0  0  0
    0.2980    1.8290   -0.9190 C   0  0  0  0  0  0  0  0  0  0  0  0
    1.4258    1.7258   -0.2053 N   0  0  0  0  0  0  0  0  0  0  0  0
    2.2883    3.1230    1.1700 H   0  0  0  0  0  0  0  0  0  0  0  0
   -1.8672    3.5537   -0.9320 H   0  0  0  0  0  0  0  0  0  0  0  0
   -0.1626    4.9568    0.7606 C   0  0  0  0  0  0  0  0  0  0  0  0
    0.6999    5.6082    0.9469 H   0  0  0  0  0  0  0  0  0  0  0  0
   -0.6363    4.8014    1.7414 H   0  0  0  0  0  0  0  0  0  0  0  0
   -2.5942    5.1877   -0.1547 C   0  0  0  0  0  0  0  0  0  0  0  0
   -3.5289    5.8146    0.2959 O   0  0  0  0  0  0  0  0  0  0  0  0
   -2.7712    3.9805   -0.7210 O   0  0  0  0  0  0  0  0  0  0  0  0
   -1.1564    5.7248   -0.1471 C   0  0  0  0  0  0  0  0  0  0  0  0
   -0.7735    5.7304   -1.1754 H   0  0  0  0  0  0  0  0  0  0  0  0
   -3.2096   -2.2141    0.4371 O   0  0  0  0  0  0  0  0  0  0  0  0
   -3.6822   -1.0752    0.2141 C   0  0  0  0  0  0  0  0  0  0  0  0
   -4.6373   -0.5130    0.8323 O   0  5  0  0  0  0  0  0  0  0  0  0
   -3.0290   -0.2493   -0.9574 C   0  0  2  0  0  0  0  0  0  0  0  0
   -3.1660   -0.8485   -1.8633 H   0  0  0  0  0  0  0  0  0  0  0  0
   -1.5586   -0.1442   -0.5991 C   0  0  0  0  0  0  0  0  0  0  0  0
   -1.4131    0.4666    0.2930 H   0  0  0  0  0  0  0  0  0  0  0  0
   -1.2045   -1.1527   -0.3991 H   0  0  0  0  0  0  0  0  0  0  0  0
   -0.3117    0.4308   -1.8536 S   0  0  2  0  0  0  0  0  0  0  0  0
   -3.6597    1.0401   -1.1715 N   0  0  0  0  0  0  0  0  0  0  0  0
   -3.3055    1.8542   -0.6801 H   0  0  0  0  0  0  0  0  0  0  0  0
   -4.9348    1.1001   -1.6320 C   0  0  0  0  0  0  0  0  0  0  0  0
   -5.5266    0.0933   -2.0525 O   0  0  0  0  0  0  0  0  0  0  0  0
   -5.6034    2.4578   -1.6117 C   0  0  0  0  0  0  0  0  0  0  0  0
   -6.1236    2.6047   -2.5626 H   0  0  0  0  0  0  0  0  0  0  0  0
   -4.9117    3.2813   -1.4242 H   0  0  0  0  0  0  0  0  0  0  0  0
    6.9646   -3.0162   -1.4836 H   0  0  0  0  0  0  0  0  0  0  0  0
   -8.5503   -5.6195    0.8983 H   0  0  0  0  0  0  0  0  0  0  0  0
    7.2850    2.0068    3.4237 H   0  0  0  0  0  0  0  0  0  0  0  0
   -3.0578   -0.0926    2.7633 H   0  0  0  0  0  0  0  0  0  0  0  0
   -1.2293    6.7593    0.1956 H   0  0  0  0  0  0  0  0  0  0  0  0
   -6.3612    2.4472   -0.8193 H   0  0  0  0  0  0  0  0  0  0  0  0
    3.8988    0.1520   -1.5912 N   0  0  0  0  0  0  0  0  0  0  0  0
    4.7927   -0.1521   -2.3075 C   0  0  0  0  0  0  0  0  0  0  0  0
    6.0209   -0.6032   -3.2894 S   0  0  0  0  0  0  0  0  0  0  0  0
  1  6  1  0  0  0  0
  1  2  1  0  0  0  0
  3  1  1  0  0  0  0
  4  7  1  0  0  0  0
  4  6  1  0  0  0  0
  5  4  1  0  0  0  0
  6 10  2  0  0  0  0
  7  9  2  0  0  0  0
  8  7  1  0  0  0  0
  9 10  1  0  0  0  0
  9 46  9  0  0  0  0
 10 11  1  0  0  0  0
 12 13  1  0  0  0  0
 12 14  1  0  0  0  0
 15 17  1  0  0  0  0
 15 12  1  0  0  0  0
 16 15  1  0  0  0  0
 17 18  1  0  0  0  0
 18 20  1  0  0  0  0
 19 18  1  0  0  0  0
 21 17  1  0  0  0  0
 22 21  1  0  0  0  0
 23 21  1  0  0  0  0
 24 25  1  0  0  0  0
 24 81  1  0  0  0  0
 26 24  1  0  0  0  0
 27 28  1  0  0  0  0
 29 24  1  0  0  0  0
 29 27  1  0  0  0  0
 30 31  1  0  0  0  0
 30 27  1  0  0  0  0
 32 30  2  0  0  0  0
 32 46  9  0  0  0  0
 33 32  1  0  0  0  0
 33 29  2  0  0  0  0
 34 33  1  0  0  0  0
 35 37  1  0  0  0  0
 35 36  1  0  0  0  0
 38 40  1  0  0  0  0
 39 38  1  0  0  0  0
 40 35  1  0  0  0  0
 41 43  2  0  0  0  0
 41 38  1  0  0  0  0
 42 41  1  0  0  0  0
 43 44  1  0  0  0  0
 43 46  9  0  0  0  0
 44 45  1  0  0  0  0
 44 40  2  0  0  0  0
 47 46  9  0  0  0  0
 48 49  2  0  0  0  0
 48 55  1  0  0  0  0
 49 53  1  0  0  0  0
 50 48  1  0  0  0  0
 51 50  2  0  0  0  0
 51 52  1  0  0  0  0
 52 46  1  0  0  0  0
 52 49  1  0  0  0  0
 54 60  1  0  0  0  0
 55 56  1  0  0  0  0
 55 57  1  0  0  0  0
 58 61  1  0  0  0  0
 58 59  2  0  0  0  0
 60 58  1  0  0  0  0
 61 83  1  0  0  0  0
 61 55  1  0  0  0  0
 62 61  1  0  0  0  0
 64 63  2  0  0  0  0
 64 65  1  0  0  0  0
 66 67  1  6  0  0  0
 66 68  1  0  0  0  0
 66 64  1  0  0  0  0
 68 70  1  0  0  0  0
 68 69  1  0  0  0  0
 71 47  2  0  0  0  0
 71 51  1  0  0  0  0
 71 68  1  1  0  0  0
 72 66  1  0  0  0  0
 72 73  1  0  0  0  0
 74 76  1  0  0  0  0
 74 72  1  0  0  0  0
 75 74  2  0  0  0  0
 76 78  1  0  0  0  0
 76 84  1  0  0  0  0
 77 76  1  0  0  0  0
 79  1  1  0  0  0  0
 80 12  1  0  0  0  0
 82 35  1  0  0  0  0
 85 46  1  0  0  0  0
 86 85  2  0  0  0  0
 87 86  2  0  0  0  0
M  RAD  1  17   2
M  CHG  2  46   1  65  -1
M  END
$$$$
