
 OpenBabel02072512513D

 87 88  0  0  0  0  0  0  0  0999 V2000
   -1.4719   -4.9148    0.9211 C   0  0  0  0  0  0  0  0  0  0  0  0
   -1.6026   -4.5883    1.9585 H   0  0  0  0  0  0  0  0  0  0  0  0
   -2.4449   -4.8500    0.4140 H   0  0  0  0  0  0  0  0  0  0  0  0
   -0.0040   -4.2897   -1.0400 N   0  0  0  0  0  0  0  0  0  0  0  0
   -0.3306   -5.0151   -1.6613 H   0  0  0  0  0  0  0  0  0  0  0  0
   -0.4511   -4.0577    0.2517 C   0  0  0  0  0  0  0  0  0  0  0  0
    0.8796   -3.3122   -1.3662 C   0  0  0  0  0  0  0  0  0  0  0  0
    1.3677   -3.2172   -2.3244 H   0  0  0  0  0  0  0  0  0  0  0  0
    1.0374   -2.4775   -0.3582 N   0  0  0  0  0  0  0  0  0  0  0  0
    0.2131   -2.9276    0.6524 C   0  0  0  0  0  0  0  0  0  0  0  0
    0.1190   -2.3809    1.5787 H   0  0  0  0  0  0  0  0  0  0  0  0
   -5.7410   -4.4663    1.7566 C   0  0  0  0  0  0  0  0  0  0  0  0
   -4.9283   -4.9928    1.2448 H   0  0  0  0  0  0  0  0  0  0  0  0
   -5.4453   -4.2757    2.7982 H   0  0  0  0  0  0  0  0  0  0  0  0
   -6.0833   -3.2500    1.0372 N   0  0  0  0  0  0  0  0  0  0  0  0
   -7.0558   -2.9780    1.0307 H   0  0  0  0  0  0  0  0  0  0  0  0
   -5.1843   -2.2548    0.7887 C   0  0  0  0  0  0  0  0  0  0  0  0
   -3.9099   -2.3816    1.1273 N   0  0  0  0  0  0  0  0  0  0  0  0
   -3.2413   -1.5999    0.8140 H   0  0  0  0  0  0  0  0  0  0  0  0
   -3.5992   -3.1578    1.6882 H   0  0  0  0  0  0  0  0  0  0  0  0
   -5.6158   -1.1397    0.1909 N   0  3  0  0  0  0  0  0  0  0  0  0
   -6.4938   -1.1413   -0.3073 H   0  0  0  0  0  0  0  0  0  0  0  0
   -4.9680   -0.3979   -0.1124 H   0  0  0  0  0  0  0  0  0  0  0  0
    7.2992   -0.7624    1.3277 C   0  0  0  0  0  0  0  0  0  0  0  0
    7.8863   -1.4674    0.7254 H   0  0  0  0  0  0  0  0  0  0  0  0
    7.5613    0.2484    1.0037 H   0  0  0  0  0  0  0  0  0  0  0  0
    5.2022   -2.1694    1.4907 N   0  0  0  0  0  0  0  0  0  0  0  0
    5.6658   -3.0178    1.7816 H   0  0  0  0  0  0  0  0  0  0  0  0
    5.8339   -0.9815    1.1522 C   0  0  0  0  0  0  0  0  0  0  0  0
    3.8909   -2.0655    1.1512 C   0  0  0  0  0  0  0  0  0  0  0  0
    3.1730   -2.8660    1.2443 H   0  0  0  0  0  0  0  0  0  0  0  0
    3.6340   -0.8683    0.6583 N   0  0  0  0  0  0  0  0  0  0  0  0
    4.8369   -0.1871    0.6489 C   0  0  0  0  0  0  0  0  0  0  0  0
    4.8995    0.8089    0.2384 H   0  0  0  0  0  0  0  0  0  0  0  0
    0.0733    1.3011    4.4189 C   0  0  0  0  0  0  0  0  0  0  0  0
   -0.9317    1.0741    4.7972 H   0  0  0  0  0  0  0  0  0  0  0  0
    0.7901    0.6898    4.9753 H   0  0  0  0  0  0  0  0  0  0  0  0
   -0.5565    1.6947    2.0048 N   0  0  0  0  0  0  0  0  0  0  0  0
   -1.1821    2.5095    2.0949 H   0  0  0  0  0  0  0  0  0  0  0  0
    0.1908    1.0260    2.9563 C   0  0  0  0  0  0  0  0  0  0  0  0
   -0.2062    1.2255    0.7932 C   0  0  0  0  0  0  0  0  0  0  0  0
   -0.6058    1.6351   -0.1133 H   0  0  0  0  0  0  0  0  0  0  0  0
    0.7198    0.2846    0.8890 N   0  0  0  0  0  0  0  0  0  0  0  0
    0.9765    0.1507    2.2438 C   0  0  0  0  0  0  0  0  0  0  0  0
    1.7285   -0.5367    2.6005 H   0  0  0  0  0  0  0  0  0  0  0  0
    1.9531   -0.4373   -0.7563 Fe  0  3  0  0  0 37  0  0  0  0  0  0
    1.8215    3.6579    0.2363 C   0  0  0  0  0  0  0  0  0  0  0  0
    2.6307    2.5600    0.3953 C   0  0  0  0  0  0  0  0  0  0  0  0
    1.4419    3.6319   -1.0986 N   0  0  0  0  0  0  0  0  0  0  0  0
    1.9813    2.5205   -1.6590 C   0  0  0  0  0  0  0  0  0  0  0  0
    2.7087    1.8376   -0.7851 N   0  0  0  0  0  0  0  0  0  0  0  0
    3.1003    2.1980    1.2983 H   0  0  0  0  0  0  0  0  0  0  0  0
    1.8093    2.2225   -2.6822 H   0  0  0  0  0  0  0  0  0  0  0  0
    0.5844    4.0965   -1.4205 H   0  0  0  0  0  0  0  0  0  0  0  0
    1.3160    4.6846    1.2142 C   0  0  0  0  0  0  0  0  0  0  0  0
    2.1018    5.4227    1.4283 H   0  0  0  0  0  0  0  0  0  0  0  0
    1.1048    4.1722    2.1606 H   0  0  0  0  0  0  0  0  0  0  0  0
   -1.1138    4.4701    0.4330 C   0  0  0  0  0  0  0  0  0  0  0  0
   -1.8073    4.0431    1.3908 O   0  5  0  0  0  0  0  0  0  0  0  0
   -1.2296    4.1345   -0.7909 O   0  0  0  0  0  0  0  0  0  0  0  0
    0.0420    5.4387    0.7638 C   0  0  0  0  0  0  0  0  0  0  0  0
    0.2655    6.0575   -0.1126 H   0  0  0  0  0  0  0  0  0  0  0  0
   -1.6621   -1.3970   -1.3336 O   0  0  0  0  0  0  0  0  0  0  0  0
   -2.2656   -0.3731   -0.9340 C   0  0  0  0  0  0  0  0  0  0  0  0
   -2.8338   -0.2413    0.1923 O   0  5  0  0  0  0  0  0  0  0  0  0
   -2.3992    0.7899   -1.9570 C   0  0  2  0  0  0  0  0  0  0  0  0
   -3.0755    0.3790   -2.7162 H   0  0  0  0  0  0  0  0  0  0  0  0
   -1.0496    1.1526   -2.6227 C   0  0  0  0  0  0  0  0  0  0  0  0
   -1.2389    1.5129   -3.6383 H   0  0  0  0  0  0  0  0  0  0  0  0
   -0.5897    1.9769   -2.0731 H   0  0  0  0  0  0  0  0  0  0  0  0
    0.1390   -0.2382   -2.7191 S   0  0  0  0  0  1  0  0  0  0  0  0
   -2.9968    1.9910   -1.4122 N   0  0  0  0  0  0  0  0  0  0  0  0
   -2.3853    2.7782   -1.1414 H   0  0  0  0  0  0  0  0  0  0  0  0
   -4.2960    2.0443   -1.0496 C   0  0  0  0  0  0  0  0  0  0  0  0
   -5.0987    1.1185   -1.2597 O   0  0  0  0  0  0  0  0  0  0  0  0
   -4.7058    3.3410   -0.3730 C   0  0  0  0  0  0  0  0  0  0  0  0
   -4.6809    4.1682   -1.0923 H   0  0  0  0  0  0  0  0  0  0  0  0
   -4.0028    3.5891    0.4312 H   0  0  0  0  0  0  0  0  0  0  0  0
   -1.1805   -5.9730    0.9473 H   0  0  0  0  0  0  0  0  0  0  0  0
   -6.6128   -5.1232    1.7598 H   0  0  0  0  0  0  0  0  0  0  0  0
    7.6118   -0.8715    2.3745 H   0  0  0  0  0  0  0  0  0  0  0  0
    0.2782    2.3543    4.6494 H   0  0  0  0  0  0  0  0  0  0  0  0
   -0.2688    6.0991    1.5790 H   0  0  0  0  0  0  0  0  0  0  0  0
   -5.7205    3.2343    0.0155 H   0  0  0  0  0  0  0  0  0  0  0  0
    3.1000   -1.2501   -2.2244 N   0  0  0  0  0  0  0  0  0  0  0  0
    3.9607   -2.0684   -2.0154 N   0  3  0  0  0  0  0  0  0  0  0  0
    4.7870   -2.8619   -1.8246 N   0  5  0  0  0  0  0  0  0  0  0  0
  1 79  1  0  0  0  0
  1  2  1  0  0  0  0
  3  1  1  0  0  0  0
  4  6  1  0  0  0  0
  5  4  1  0  0  0  0
  6 10  2  0  0  0  0
  6  1  1  0  0  0  0
  7  4  1  0  0  0  0
  7  9  2  0  0  0  0
  8  7  1  0  0  0  0
  9 10  1  0  0  0  0
  9 46  9  0  0  0  0
 10 11  1  0  0  0  0
 12 80  1  0  0  0  0
 12 14  1  0  0  0  0
 13 12  1  0  0  0  0
 15 12  1  0  0  0  0
 16 15  1  0  0  0  0
 17 15  1  0  0  0  0
 17 18  1  0  0  0  0
 18 20  1  0  0  0  0
 19 18  1  0  0  0  0
 21 17  2  0  0  0  0
 22 21  1  0  0  0  0
 23 21  1  0  0  0  0
 24 81  1  0  0  0  0
 25 24  1  0  0  0  0
 26 24  1  0  0  0  0
 27 28  1  0  0  0  0
 29 24  1  0  0  0  0
 29 27  1  0  0  0  0
 30 31  1  0  0  0  0
 30 27  1  0  0  0  0
 32 30  2  0  0  0  0
 32 46  9  0  0  0  0
 33 32  1  0  0  0  0
 33 29  2  0  0  0  0
 34 33  1  0  0  0  0
 35 82  1  0  0  0  0
 35 36  1  0  0  0  0
 35 37  1  0  0  0  0
 38 39  1  0  0  0  0
 38 40  1  0  0  0  0
 40 35  1  0  0  0  0
 41 43  2  0  0  0  0
 41 38  1  0  0  0  0
 42 41  1  0  0  0  0
 43 44  1  0  0  0  0
 43 46  9  0  0  0  0
 44 45  1  0  0  0  0
 44 40  2  0  0  0  0
 46 85  1  0  0  0  0
 47 48  2  0  0  0  0
 47 55  1  0  0  0  0
 48 52  1  0  0  0  0
 49 47  1  0  0  0  0
 50 49  1  0  0  0  0
 50 51  2  0  0  0  0
 51 48  1  0  0  0  0
 51 46  9  0  0  0  0
 53 50  1  0  0  0  0
 54 49  1  0  0  0  0
 55 56  1  0  0  0  0
 55 57  1  0  0  0  0
 58 61  1  0  0  0  0
 58 59  1  0  0  0  0
 60 58  2  0  0  0  0
 61 55  1  0  0  0  0
 61 83  1  0  0  0  0
 62 61  1  0  0  0  0
 63 64  2  0  0  0  0
 64 65  1  0  0  0  0
 66 67  1  6  0  0  0
 66 72  1  0  0  0  0
 66 64  1  0  0  0  0
 68 70  1  0  0  0  0
 68 66  1  0  0  0  0
 69 68  1  0  0  0  0
 71 68  1  0  0  0  0
 72 73  1  0  0  0  0
 72 74  1  0  0  0  0
 74 76  1  0  0  0  0
 75 74  2  0  0  0  0
 76 84  1  0  0  0  0
 76 78  1  0  0  0  0
 77 76  1  0  0  0  0
 85 86  2  0  0  0  0
 86 87  2  0  0  0  0
M  RAD  2  46   2  71   2
M  CHG  6  21   1  46   1  59  -1  65  -1  86   1  87  -1
M  END
$$$$
