
 OpenBabel02052520093D

 85 86  0  0  0  0  0  0  0  0999 V2000
    0.8395   -3.0296   -2.2474 C   0  0  0  0  0  0  0  0  0  0  0  0
    0.3731   -2.9208   -3.2309 H   0  0  0  0  0  0  0  0  0  0  0  0
    1.5739   -2.2266   -2.1135 H   0  0  0  0  0  0  0  0  0  0  0  0
    0.1564   -2.9150    0.1661 N   0  0  0  0  0  0  0  0  0  0  0  0
    1.1229   -2.8821    0.5121 H   0  0  0  0  0  0  0  0  0  0  0  0
   -0.1906   -2.9390   -1.1724 C   0  0  0  0  0  0  0  0  0  0  0  0
   -0.9660   -2.7005    0.8901 C   0  0  0  0  0  0  0  0  0  0  0  0
   -0.9735   -2.5884    1.9641 H   0  0  0  0  0  0  0  0  0  0  0  0
   -2.0324   -2.5884    0.0984 N   0  0  0  0  0  0  0  0  0  0  0  0
   -1.5500   -2.7555   -1.1899 C   0  0  0  0  0  0  0  0  0  0  0  0
   -2.2002   -2.6696   -2.0495 H   0  0  0  0  0  0  0  0  0  0  0  0
    4.3510   -2.5612   -2.8998 C   0  0  0  0  0  0  0  0  0  0  0  0
    3.7181   -1.6751   -3.0386 H   0  0  0  0  0  0  0  0  0  0  0  0
    5.2315   -2.5085   -3.5473 H   0  0  0  0  0  0  0  0  0  0  0  0
    4.7630   -2.7022   -1.5082 N   0  0  0  0  0  0  0  0  0  0  0  0
    4.0331   -3.0471   -0.8782 H   0  0  0  0  0  0  0  0  0  0  0  0
    5.5110   -1.7550   -0.9134 C   0  0  0  0  0  3  0  0  0  0  0  0
    6.0662   -0.7436   -1.6129 N   0  0  0  0  0  0  0  0  0  0  0  0
    6.3489    0.0455   -1.0259 H   0  0  0  0  0  0  0  0  0  0  0  0
    5.5706   -0.4597   -2.4477 H   0  0  0  0  0  0  0  0  0  0  0  0
    5.7940   -1.8547    0.3954 N   0  0  0  0  0  0  0  0  0  0  0  0
    5.2131   -2.4984    0.9230 H   0  0  0  0  0  0  0  0  0  0  0  0
    5.9447   -0.9411    0.8459 H   0  0  0  0  0  0  0  0  0  0  0  0
   -8.2334   -0.1577   -1.3237 C   0  0  0  0  0  0  0  0  0  0  0  0
   -8.9995   -0.6733   -0.7310 H   0  0  0  0  0  0  0  0  0  0  0  0
   -8.3434    0.9154   -1.1464 H   0  0  0  0  0  0  0  0  0  0  0  0
   -6.4227   -1.9083   -1.0474 N   0  0  0  0  0  0  0  0  0  0  0  0
   -6.9807   -2.6900   -1.3604 H   0  0  0  0  0  0  0  0  0  0  0  0
   -6.8564   -0.5909   -0.9453 C   0  0  0  0  0  0  0  0  0  0  0  0
   -5.1389   -1.9775   -0.6179 C   0  0  0  0  0  0  0  0  0  0  0  0
   -4.5449   -2.8770   -0.5497 H   0  0  0  0  0  0  0  0  0  0  0  0
   -4.7215   -0.7776   -0.2539 N   0  0  0  0  0  0  0  0  0  0  0  0
   -5.7775    0.0918   -0.4473 C   0  0  0  0  0  0  0  0  0  0  0  0
   -5.6871    1.1349   -0.1840 H   0  0  0  0  0  0  0  0  0  0  0  0
    0.0147    1.8476   -3.6728 C   0  0  0  0  0  0  0  0  0  0  0  0
    0.6082    1.1920   -4.3233 H   0  0  0  0  0  0  0  0  0  0  0  0
   -0.8581    2.1844   -4.2400 H   0  0  0  0  0  0  0  0  0  0  0  0
    0.4904    0.8631   -1.4159 N   0  0  0  0  0  0  0  0  0  0  0  0
    1.4556    1.1905   -1.3695 H   0  0  0  0  0  0  0  0  0  0  0  0
   -0.4103    1.1527   -2.4221 C   0  0  0  0  0  0  0  0  0  0  0  0
   -0.1765    0.3056   -0.3920 C   0  0  0  0  0  0  0  0  0  0  0  0
    0.2846   -0.0167    0.5238 H   0  0  0  0  0  0  0  0  0  0  0  0
   -1.4668    0.1955   -0.6779 N   0  0  0  0  0  0  0  0  0  0  0  0
   -1.6243    0.7137   -1.9521 C   0  0  0  0  0  0  0  0  0  0  0  0
   -2.5954    0.7559   -2.4222 H   0  0  0  0  0  0  0  0  0  0  0  0
   -2.9010   -0.4650    0.7357 Fe  0  2  0  0  0  0  0  0  0  0  0  0
   -1.7679    3.3827    0.2054 C   0  0  0  0  0  0  0  0  0  0  0  0
   -2.9711    2.7217    0.1174 C   0  0  0  0  0  0  0  0  0  0  0  0
   -1.1936    2.9186    1.3745 N   0  0  0  0  0  0  0  0  0  0  0  0
   -2.0244    1.9984    1.9146 C   0  0  0  0  0  0  0  0  0  0  0  0
   -3.1208    1.8399    1.1716 N   0  0  0  0  0  0  0  0  0  0  0  0
   -3.7127    2.7884   -0.6669 H   0  0  0  0  0  0  0  0  0  0  0  0
   -1.8116    1.4374    2.8129 H   0  0  0  0  0  0  0  0  0  0  0  0
   -0.1896    3.0534    1.5825 H   0  0  0  0  0  0  0  0  0  0  0  0
   -1.0793    4.3299   -0.7403 C   0  0  0  0  0  0  0  0  0  0  0  0
   -1.7029    5.2236   -0.8768 H   0  0  0  0  0  0  0  0  0  0  0  0
   -1.0159    3.8460   -1.7234 H   0  0  0  0  0  0  0  0  0  0  0  0
    1.3396    3.6022   -0.2539 C   0  0  0  0  0  0  0  0  0  0  0  0
    1.9141    3.2525   -1.3099 O   0  0  0  0  0  0  0  0  0  0  0  0
    1.4709    3.0440    0.8921 O   0  5  0  0  0  0  0  0  0  0  0  0
    0.3395    4.7760   -0.3225 C   0  0  0  0  0  0  0  0  0  0  0  0
    0.3003    5.2808    0.6494 H   0  0  0  0  0  0  0  0  0  0  0  0
    2.8618   -2.2705    0.6811 O   0  5  0  0  0  0  0  0  0  0  0  0
    2.9744   -1.0215    0.3939 C   0  0  0  0  0  0  0  0  0  0  0  0
    2.9097   -0.5321   -0.7477 O   0  0  0  0  0  0  0  0  0  0  0  0
    3.2903   -0.1062    1.6151 C   0  0  2  0  0  0  0  0  0  0  0  0
    4.1827   -0.5198    2.0918 H   0  0  0  0  0  0  0  0  0  0  0  0
    2.1552   -0.1685    2.6559 C   0  0  0  0  0  0  0  0  0  0  0  0
    2.4545    0.4270    3.5256 H   0  0  0  0  0  0  0  0  0  0  0  0
    1.2400    0.2792    2.2541 H   0  0  0  0  0  0  0  0  0  0  0  0
    1.8794   -1.8841    3.2158 S   0  0  0  0  0  1  0  0  0  0  0  0
    3.5692    1.2591    1.2308 N   0  0  0  0  0  0  0  0  0  0  0  0
    2.7660    1.9039    1.0815 H   0  0  0  0  0  0  0  0  0  0  0  0
    4.7594    1.6339    0.7339 C   0  0  0  0  0  0  0  0  0  0  0  0
    5.7706    0.8903    0.7065 O   0  0  0  0  0  0  0  0  0  0  0  0
    4.8171    3.0455    0.1924 C   0  0  0  0  0  0  0  0  0  0  0  0
    5.8435    3.2824   -0.0925 H   0  0  0  0  0  0  0  0  0  0  0  0
    4.4643    3.7604    0.9430 H   0  0  0  0  0  0  0  0  0  0  0  0
    1.3743   -3.9893   -2.2290 H   0  0  0  0  0  0  0  0  0  0  0  0
    3.7772   -3.4465   -3.1771 H   0  0  0  0  0  0  0  0  0  0  0  0
   -8.4461   -0.3460   -2.3839 H   0  0  0  0  0  0  0  0  0  0  0  0
    0.6342    2.7141   -3.4138 H   0  0  0  0  0  0  0  0  0  0  0  0
    0.7017    5.4901   -1.0681 H   0  0  0  0  0  0  0  0  0  0  0  0
    4.1393    3.1336   -0.6649 H   0  0  0  0  0  0  0  0  0  0  0  0
   -3.0751   -1.0609    2.9534 Cl  0  0  0  0  0  0  0  0  0  0  0  0
  1 79  1  0  0  0  0
  1  3  1  0  0  0  0
  1  6  1  0  0  0  0
  2  1  1  0  0  0  0
  4  5  1  0  0  0  0
  4  7  1  0  0  0  0
  6  4  1  0  0  0  0
  7  8  1  0  0  0  0
  9  7  2  0  0  0  0
  9 46  9  0  0  0  0
 10  6  2  0  0  0  0
 10  9  1  0  0  0  0
 11 10  1  0  0  0  0
 12 15  1  0  0  0  0
 13 12  1  0  0  0  0
 14 12  1  0  0  0  0
 15 17  1  0  0  0  0
 15 16  1  0  0  0  0
 17 21  1  0  0  0  0
 18 19  1  0  0  0  0
 18 17  1  0  0  0  0
 20 18  1  0  0  0  0
 21 23  1  0  0  0  0
 21 22  1  0  0  0  0
 24 26  1  0  0  0  0
 24 29  1  0  0  0  0
 24 25  1  0  0  0  0
 27 29  1  0  0  0  0
 27 30  1  0  0  0  0
 28 27  1  0  0  0  0
 29 33  2  0  0  0  0
 30 31  1  0  0  0  0
 30 32  2  0  0  0  0
 32 46  9  0  0  0  0
 33 32  1  0  0  0  0
 33 34  1  0  0  0  0
 35 82  1  0  0  0  0
 35 40  1  0  0  0  0
 36 35  1  0  0  0  0
 37 35  1  0  0  0  0
 38 39  1  0  0  0  0
 38 41  1  0  0  0  0
 40 44  2  0  0  0  0
 40 38  1  0  0  0  0
 41 42  1  0  0  0  0
 43 41  2  0  0  0  0
 43 46  9  0  0  0  0
 44 43  1  0  0  0  0
 45 44  1  0  0  0  0
 46 85  1  0  0  0  0
 47 49  1  0  0  0  0
 48 47  2  0  0  0  0
 48 51  1  0  0  0  0
 49 54  1  0  0  0  0
 49 50  1  0  0  0  0
 50 53  1  0  0  0  0
 51 50  2  0  0  0  0
 51 46  9  0  0  0  0
 52 48  1  0  0  0  0
 55 61  1  0  0  0  0
 55 47  1  0  0  0  0
 56 55  1  0  0  0  0
 57 55  1  0  0  0  0
 58 60  1  0  0  0  0
 59 58  2  0  0  0  0
 61 58  1  0  0  0  0
 61 62  1  0  0  0  0
 64 63  1  0  0  0  0
 64 66  1  0  0  0  0
 65 64  2  0  0  0  0
 66 67  1  1  0  0  0
 66 68  1  0  0  0  0
 68 71  1  0  0  0  0
 68 69  1  0  0  0  0
 70 68  1  0  0  0  0
 72 66  1  0  0  0  0
 73 72  1  0  0  0  0
 74 72  1  0  0  0  0
 75 74  2  0  0  0  0
 76 74  1  0  0  0  0
 76 78  1  0  0  0  0
 77 76  1  0  0  0  0
 80 12  1  0  0  0  0
 81 24  1  0  0  0  0
 83 61  1  0  0  0  0
 84 76  1  0  0  0  0
M  RAD  2  17   2  71   2
M  CHG  3  46   2  60  -1  63  -1
M  END
$$$$
