
 OpenBabel02052520093D

 86 87  0  0  0  0  0  0  0  0999 V2000
    0.7414   -3.0889   -2.2066 C   0  0  0  0  0  0  0  0  0  0  0  0
    0.1411   -3.0534   -3.1205 H   0  0  0  0  0  0  0  0  0  0  0  0
    1.4318   -2.2366   -2.2050 H   0  0  0  0  0  0  0  0  0  0  0  0
    0.3537   -2.8888    0.2758 N   0  0  0  0  0  0  0  0  0  0  0  0
    1.3431   -2.6989    0.4940 H   0  0  0  0  0  0  0  0  0  0  0  0
   -0.1457   -3.0184   -1.0086 C   0  0  0  0  0  0  0  0  0  0  0  0
   -0.6912   -2.7545    1.1247 C   0  0  0  0  0  0  0  0  0  0  0  0
   -0.5958   -2.5658    2.1849 H   0  0  0  0  0  0  0  0  0  0  0  0
   -1.8499   -2.8034    0.4637 N   0  0  0  0  0  0  0  0  0  0  0  0
   -1.5088   -2.9774   -0.8670 C   0  0  0  0  0  0  0  0  0  0  0  0
   -2.2626   -3.0043   -1.6410 H   0  0  0  0  0  0  0  0  0  0  0  0
    4.5510   -3.8206   -1.3928 C   0  0  0  0  0  0  0  0  0  0  0  0
    3.5199   -3.4787   -1.2562 H   0  0  0  0  0  0  0  0  0  0  0  0
    4.8693   -3.6735   -2.4280 H   0  0  0  0  0  0  0  0  0  0  0  0
    5.4539   -3.0968   -0.4984 N   0  0  0  0  0  0  0  0  0  0  0  0
    5.3905   -3.3800    0.4716 H   0  0  0  0  0  0  0  0  0  0  0  0
    5.6923   -1.7792   -0.6607 C   0  0  0  0  0  3  0  0  0  0  0  0
    5.2793   -1.1315   -1.7654 N   0  0  0  0  0  0  0  0  0  0  0  0
    5.4078   -0.1168   -1.7009 H   0  0  0  0  0  0  0  0  0  0  0  0
    4.3377   -1.3562   -2.0789 H   0  0  0  0  0  0  0  0  0  0  0  0
    6.4355   -1.1091    0.2294 N   0  0  0  0  0  0  0  0  0  0  0  0
    6.7676   -1.5755    1.0609 H   0  0  0  0  0  0  0  0  0  0  0  0
    6.2818   -0.0888    0.2471 H   0  0  0  0  0  0  0  0  0  0  0  0
   -7.7336   -0.5612   -1.8858 C   0  0  0  0  0  0  0  0  0  0  0  0
   -8.6464   -0.9718   -1.4357 H   0  0  0  0  0  0  0  0  0  0  0  0
   -7.8107    0.5290   -1.8570 H   0  0  0  0  0  0  0  0  0  0  0  0
   -6.1384   -2.3298   -1.0235 N   0  0  0  0  0  0  0  0  0  0  0  0
   -6.6457   -3.1226   -1.3898 H   0  0  0  0  0  0  0  0  0  0  0  0
   -6.5080   -0.9985   -1.1549 C   0  0  0  0  0  0  0  0  0  0  0  0
   -4.9855   -2.3882   -0.3060 C   0  0  0  0  0  0  0  0  0  0  0  0
   -4.4599   -3.2957   -0.0466 H   0  0  0  0  0  0  0  0  0  0  0  0
   -4.5933   -1.1723    0.0261 N   0  0  0  0  0  0  0  0  0  0  0  0
   -5.5294   -0.3008   -0.4929 C   0  0  0  0  0  0  0  0  0  0  0  0
   -5.4355    0.7647   -0.3505 H   0  0  0  0  0  0  0  0  0  0  0  0
   -0.9578    2.0928   -3.4849 C   0  0  0  0  0  0  0  0  0  0  0  0
   -0.4233    1.5452   -4.2723 H   0  0  0  0  0  0  0  0  0  0  0  0
   -1.9423    2.3683   -3.8756 H   0  0  0  0  0  0  0  0  0  0  0  0
   -0.0228    0.9509   -1.4473 N   0  0  0  0  0  0  0  0  0  0  0  0
    0.9287    1.2892   -1.5598 H   0  0  0  0  0  0  0  0  0  0  0  0
   -1.1048    1.2763   -2.2440 C   0  0  0  0  0  0  0  0  0  0  0  0
   -0.4722    0.2577   -0.3832 C   0  0  0  0  0  0  0  0  0  0  0  0
    0.1635   -0.1281    0.3941 H   0  0  0  0  0  0  0  0  0  0  0  0
   -1.7869    0.0997   -0.4399 N   0  0  0  0  0  0  0  0  0  0  0  0
   -2.1910    0.7253   -1.6060 C   0  0  0  0  0  0  0  0  0  0  0  0
   -3.2310    0.7492   -1.8956 H   0  0  0  0  0  0  0  0  0  0  0  0
   -2.8102   -0.8782    1.2315 Fe  0  2  0  0  0  0  0  0  0  0  0  0
   -2.1678    3.1770    0.7859 C   0  0  0  0  0  0  0  0  0  0  0  0
   -3.3275    2.4653    0.9961 C   0  0  0  0  0  0  0  0  0  0  0  0
   -1.2606    2.6452    1.6804 N   0  0  0  0  0  0  0  0  0  0  0  0
   -1.8709    1.6391    2.3483 C   0  0  0  0  0  0  0  0  0  0  0  0
   -3.1362    1.4896    1.9554 N   0  0  0  0  0  0  0  0  0  0  0  0
   -4.2793    2.5859    0.4965 H   0  0  0  0  0  0  0  0  0  0  0  0
   -1.3746    0.9998    3.0635 H   0  0  0  0  0  0  0  0  0  0  0  0
   -0.2514    2.8748    1.6505 H   0  0  0  0  0  0  0  0  0  0  0  0
   -1.8085    4.2178   -0.2398 C   0  0  0  0  0  0  0  0  0  0  0  0
   -2.5598    5.0182   -0.2162 H   0  0  0  0  0  0  0  0  0  0  0  0
   -1.8783    3.7586   -1.2346 H   0  0  0  0  0  0  0  0  0  0  0  0
    0.7386    3.8313   -0.3219 C   0  0  0  0  0  0  0  0  0  0  0  0
    1.1176    3.6104   -1.4914 O   0  0  0  0  0  0  0  0  0  0  0  0
    1.1981    3.2622    0.7330 O   0  5  0  0  0  0  0  0  0  0  0  0
   -0.4047    4.8452   -0.0954 C   0  0  0  0  0  0  0  0  0  0  0  0
   -0.2983    5.2968    0.8973 H   0  0  0  0  0  0  0  0  0  0  0  0
    2.9374   -1.8798    0.5336 O   0  5  0  0  0  0  0  0  0  0  0  0
    2.8996   -0.6955    0.0507 C   0  0  0  0  0  0  0  0  0  0  0  0
    2.5838   -0.3881   -1.1165 O   0  0  0  0  0  0  0  0  0  0  0  0
    3.3418    0.4023    1.0608 C   0  0  2  0  0  0  0  0  0  0  0  0
    4.3272    0.1005    1.4252 H   0  0  0  0  0  0  0  0  0  0  0  0
    2.3788    0.4111    2.2634 C   0  0  0  0  0  0  0  0  0  0  0  0
    2.7368    1.1449    2.9943 H   0  0  0  0  0  0  0  0  0  0  0  0
    1.3809    0.7274    1.9432 H   0  0  0  0  0  0  0  0  0  0  0  0
    2.3402   -1.2271    3.0716 S   0  0  0  0  0  1  0  0  0  0  0  0
    3.4383    1.7160    0.4671 N   0  0  0  0  0  0  0  0  0  0  0  0
    2.5888    2.3235    0.4944 H   0  0  0  0  0  0  0  0  0  0  0  0
    4.4763    2.0884   -0.2898 C   0  0  0  0  0  0  0  0  0  0  0  0
    5.5063    1.3839   -0.4591 O   0  0  0  0  0  0  0  0  0  0  0  0
    4.3602    3.4518   -0.9362 C   0  0  0  0  0  0  0  0  0  0  0  0
    5.1689    3.5736   -1.6590 H   0  0  0  0  0  0  0  0  0  0  0  0
    4.4452    4.2327   -0.1709 H   0  0  0  0  0  0  0  0  0  0  0  0
    1.3329   -4.0145   -2.2290 H   0  0  0  0  0  0  0  0  0  0  0  0
    4.6204   -4.8848   -1.1592 H   0  0  0  0  0  0  0  0  0  0  0  0
   -7.7131   -0.8671   -2.9397 H   0  0  0  0  0  0  0  0  0  0  0  0
   -0.3886    3.0022   -3.2614 H   0  0  0  0  0  0  0  0  0  0  0  0
   -0.3085    5.6339   -0.8479 H   0  0  0  0  0  0  0  0  0  0  0  0
    3.3810    3.5681   -1.4143 H   0  0  0  0  0  0  0  0  0  0  0  0
   -2.5038   -1.2374    3.0282 O   0  0  0  0  0  0  0  0  0  0  0  0
   -2.9963   -0.6900    3.6568 H   0  0  0  0  0  0  0  0  0  0  0  0
  1  3  1  0  0  0  0
  1  6  1  0  0  0  0
  2  1  1  0  0  0  0
  4  5  1  0  0  0  0
  4  7  1  0  0  0  0
  6 10  2  0  0  0  0
  6  4  1  0  0  0  0
  7  8  1  0  0  0  0
  9  7  2  0  0  0  0
  9 46  9  0  0  0  0
 10  9  1  0  0  0  0
 11 10  1  0  0  0  0
 12 13  1  0  0  0  0
 12 80  1  0  0  0  0
 12 15  1  0  0  0  0
 14 12  1  0  0  0  0
 15 16  1  0  0  0  0
 17 15  1  0  0  0  0
 17 21  1  0  0  0  0
 18 19  1  0  0  0  0
 18 17  1  0  0  0  0
 20 18  1  0  0  0  0
 21 23  1  0  0  0  0
 21 22  1  0  0  0  0
 24 26  1  0  0  0  0
 24 25  1  0  0  0  0
 24 29  1  0  0  0  0
 27 30  1  0  0  0  0
 28 27  1  0  0  0  0
 29 27  1  0  0  0  0
 29 33  2  0  0  0  0
 30 31  1  0  0  0  0
 30 32  2  0  0  0  0
 32 46  9  0  0  0  0
 33 34  1  0  0  0  0
 33 32  1  0  0  0  0
 35 82  1  0  0  0  0
 35 40  1  0  0  0  0
 36 35  1  0  0  0  0
 37 35  1  0  0  0  0
 38 41  1  0  0  0  0
 39 38  1  0  0  0  0
 40 44  2  0  0  0  0
 40 38  1  0  0  0  0
 41 42  1  0  0  0  0
 43 41  2  0  0  0  0
 43 46  9  0  0  0  0
 44 43  1  0  0  0  0
 45 44  1  0  0  0  0
 46 85  1  0  0  0  0
 47 48  2  0  0  0  0
 47 49  1  0  0  0  0
 48 51  1  0  0  0  0
 49 50  1  0  0  0  0
 50 53  1  0  0  0  0
 51 50  2  0  0  0  0
 51 46  9  0  0  0  0
 52 48  1  0  0  0  0
 54 49  1  0  0  0  0
 55 56  1  0  0  0  0
 55 61  1  0  0  0  0
 55 47  1  0  0  0  0
 57 55  1  0  0  0  0
 58 61  1  0  0  0  0
 58 60  1  0  0  0  0
 59 58  2  0  0  0  0
 61 62  1  0  0  0  0
 64 63  1  0  0  0  0
 64 66  1  0  0  0  0
 65 64  2  0  0  0  0
 66 67  1  1  0  0  0
 66 68  1  0  0  0  0
 68 69  1  0  0  0  0
 68 71  1  0  0  0  0
 70 68  1  0  0  0  0
 72 73  1  0  0  0  0
 72 66  1  0  0  0  0
 74 72  1  0  0  0  0
 75 74  2  0  0  0  0
 76 74  1  0  0  0  0
 76 78  1  0  0  0  0
 77 76  1  0  0  0  0
 79  1  1  0  0  0  0
 81 24  1  0  0  0  0
 83 61  1  0  0  0  0
 84 76  1  0  0  0  0
 85 86  1  0  0  0  0
M  RAD  2  17   2  71   2
M  CHG  3  46   2  60  -1  63  -1
M  END
$$$$
