
 OpenBabel02052520093D

 85 88  0  0  0  0  0  0  0  0999 V2000
    4.1959   -5.9275   -1.1234 C   0  0  0  0  0  0  0  0  0  0  0  0
    4.0348   -6.2388   -0.0873 H   0  0  0  0  0  0  0  0  0  0  0  0
    3.5865   -6.5774   -1.7652 H   0  0  0  0  0  0  0  0  0  0  0  0
    3.9277   -3.8089   -2.4877 N   0  0  0  0  0  0  0  0  0  0  0  0
    4.2576   -4.1949   -3.3606 H   0  0  0  0  0  0  0  0  0  0  0  0
    3.8336   -4.4879   -1.2794 C   0  0  0  0  0  0  0  0  0  0  0  0
    3.5286   -2.5250   -2.2941 C   0  0  0  0  0  0  0  0  0  0  0  0
    3.5232   -1.7529   -3.0490 H   0  0  0  0  0  0  0  0  0  0  0  0
    3.1837   -2.3399   -1.0347 N   0  0  0  0  0  0  0  0  0  0  0  0
    3.3673   -3.5493   -0.3945 C   0  0  0  0  0  0  0  0  0  0  0  0
    3.1417   -3.6600    0.6555 H   0  0  0  0  0  0  0  0  0  0  0  0
   -8.4556   -4.0785    0.8440 C   0  0  0  0  0  0  0  0  0  0  0  0
   -7.7408   -4.8856    0.6305 H   0  0  0  0  0  0  0  0  0  0  0  0
   -8.4247   -3.8461    1.9127 H   0  0  0  0  0  0  0  0  0  0  0  0
   -8.1898   -2.8746    0.0717 N   0  0  0  0  0  0  0  0  0  0  0  0
   -8.6429   -2.7850   -0.8260 H   0  0  0  0  0  0  0  0  0  0  0  0
   -7.1350   -2.0499    0.3085 C   0  0  0  0  0  3  0  0  0  0  0  0
   -6.2697   -2.3233    1.2853 N   0  0  0  0  0  0  0  0  0  0  0  0
   -5.4205   -1.6842    1.3438 H   0  0  0  0  0  0  0  0  0  0  0  0
   -6.1192   -3.2937    1.5237 H   0  0  0  0  0  0  0  0  0  0  0  0
   -7.0202   -0.9332   -0.4088 N   0  0  0  0  0  0  0  0  0  0  0  0
   -7.7699   -0.6276   -1.0110 H   0  0  0  0  0  0  0  0  0  0  0  0
   -6.1756   -0.3421   -0.4275 H   0  0  0  0  0  0  0  0  0  0  0  0
    6.4108    1.5495    3.5096 C   0  0  0  0  0  0  0  0  0  0  0  0
    7.2989    0.9484    3.7447 H   0  0  0  0  0  0  0  0  0  0  0  0
    6.7279    2.3702    2.8607 H   0  0  0  0  0  0  0  0  0  0  0  0
    4.7586   -0.3682    3.3912 N   0  0  0  0  0  0  0  0  0  0  0  0
    4.9599   -0.7446    4.3062 H   0  0  0  0  0  0  0  0  0  0  0  0
    5.3595    0.7459    2.8191 C   0  0  0  0  0  0  0  0  0  0  0  0
    3.8578   -0.8698    2.5025 C   0  0  0  0  0  0  0  0  0  0  0  0
    3.2305   -1.7274    2.6895 H   0  0  0  0  0  0  0  0  0  0  0  0
    3.8458   -0.1445    1.4011 N   0  0  0  0  0  0  0  0  0  0  0  0
    4.7753    0.8621    1.5835 C   0  0  0  0  0  0  0  0  0  0  0  0
    4.9646    1.5740    0.7937 H   0  0  0  0  0  0  0  0  0  0  0  0
   -1.8884   -1.2460    3.2934 C   0  0  0  0  0  0  0  0  0  0  0  0
   -2.1145   -2.0913    3.9566 H   0  0  0  0  0  0  0  0  0  0  0  0
   -1.6082   -0.3931    3.9185 H   0  0  0  0  0  0  0  0  0  0  0  0
   -0.8586   -2.5740    1.3992 N   0  0  0  0  0  0  0  0  0  0  0  0
   -1.7550   -2.9163    1.0397 H   0  0  0  0  0  0  0  0  0  0  0  0
   -0.7725   -1.5676    2.3540 C   0  0  0  0  0  0  0  0  0  0  0  0
    0.2979   -2.5602    0.6835 C   0  0  0  0  0  0  0  0  0  0  0  0
    0.4782   -3.1876   -0.1765 H   0  0  0  0  0  0  0  0  0  0  0  0
    1.1339   -1.6375    1.1308 N   0  0  0  0  0  0  0  0  0  0  0  0
    0.4737   -1.0180    2.1802 C   0  0  0  0  0  0  0  0  0  0  0  0
    0.9263   -0.1918    2.7082 H   0  0  0  0  0  0  0  0  0  0  0  0
    2.5320   -0.3620   -0.3845 Fe  0  3  0  0  0  0  0  0  0  0  0  0
    0.9702   -0.5922   -1.9417 O   0  0  0  0  0  0  0  0  0  0  0  0
    0.2315    3.1964    0.7205 C   0  0  0  0  0  0  0  0  0  0  0  0
    1.3015    2.3601    0.9913 C   0  0  0  0  0  0  0  0  0  0  0  0
   -0.4492    2.6944   -0.3739 N   0  0  0  0  0  0  0  0  0  0  0  0
    0.2514    1.6026   -0.6997 C   0  0  0  0  0  0  0  0  0  0  0  0
    1.2991    1.3287    0.0823 N   0  0  0  0  0  0  0  0  0  0  0  0
    2.0768    2.4379    1.7416 H   0  0  0  0  0  0  0  0  0  0  0  0
   -1.2914    4.0219   -1.0408 H   0  0  0  0  0  0  0  0  0  0  0  0
   -0.1820    4.4833    1.3697 C   0  0  0  0  0  0  0  0  0  0  0  0
    0.5224    4.6956    2.1820 H   0  0  0  0  0  0  0  0  0  0  0  0
   -1.1709    4.3822    1.8395 H   0  0  0  0  0  0  0  0  0  0  0  0
   -1.4683    5.8806   -0.4256 C   0  0  0  0  0  0  0  0  0  0  0  0
   -2.1062    6.9116   -0.4212 O   0  0  0  0  0  0  0  0  0  0  0  0
   -1.8469    4.8433   -1.1938 O   0  0  0  0  0  0  0  0  0  0  0  0
   -0.1990    5.7071    0.4135 C   0  0  0  0  0  0  0  0  0  0  0  0
    0.6632    5.6419   -0.2632 H   0  0  0  0  0  0  0  0  0  0  0  0
   -3.3454   -2.3512   -0.0133 O   0  0  0  0  0  0  0  0  0  0  0  0
   -3.5967   -1.1269    0.0917 C   0  0  0  0  0  0  0  0  0  0  0  0
   -4.3325   -0.5783    0.9683 O   0  5  0  0  0  0  0  0  0  0  0  0
   -2.9279   -0.1749   -0.9633 C   0  0  2  0  0  0  0  0  0  0  0  0
   -3.3385   -0.4573   -1.9393 H   0  0  0  0  0  0  0  0  0  0  0  0
   -1.4440   -0.5046   -0.8953 C   0  0  0  0  0  0  0  0  0  0  0  0
   -1.0692   -0.3836    0.1213 H   0  0  0  0  0  0  0  0  0  0  0  0
   -1.3168   -1.5415   -1.2022 H   0  0  0  0  0  0  0  0  0  0  0  0
   -0.2208    0.4035   -1.9439 S   0  0  2  0  0  0  0  0  0  0  0  0
   -3.2028    1.2321   -0.7418 N   0  0  0  0  0  0  0  0  0  0  0  0
   -2.4667    1.8314   -0.3743 H   0  0  0  0  0  0  0  0  0  0  0  0
   -4.4523    1.7279   -0.9042 C   0  0  0  0  0  0  0  0  0  0  0  0
   -5.3825    1.0319   -1.3417 O   0  0  0  0  0  0  0  0  0  0  0  0
   -4.6529    3.1760   -0.5107 C   0  0  0  0  0  0  0  0  0  0  0  0
   -5.5867    3.5319   -0.9498 H   0  0  0  0  0  0  0  0  0  0  0  0
   -3.8253    3.8191   -0.8244 H   0  0  0  0  0  0  0  0  0  0  0  0
    5.2500   -6.1146   -1.3666 H   0  0  0  0  0  0  0  0  0  0  0  0
   -9.4591   -4.4331    0.6006 H   0  0  0  0  0  0  0  0  0  0  0  0
    6.0458    1.9871    4.4482 H   0  0  0  0  0  0  0  0  0  0  0  0
   -2.8047   -0.9851    2.7506 H   0  0  0  0  0  0  0  0  0  0  0  0
   -0.1023    6.6310    0.9886 H   0  0  0  0  0  0  0  0  0  0  0  0
   -4.7367    3.2378    0.5818 H   0  0  0  0  0  0  0  0  0  0  0  0
    4.2264    0.8968   -1.9166 Br  0  0  0  0  0  0  0  0  0  0  0  0
  1  2  1  0  0  0  0
  3  1  1  0  0  0  0
  4  7  1  0  0  0  0
  4  6  1  0  0  0  0
  5  4  1  0  0  0  0
  6  1  1  0  0  0  0
  6 10  2  0  0  0  0
  7  9  2  0  0  0  0
  8  7  1  0  0  0  0
  9 10  1  0  0  0  0
  9 46  9  0  0  0  0
 10 11  1  0  0  0  0
 12 14  1  0  0  0  0
 13 12  1  0  0  0  0
 15 17  1  0  0  0  0
 15 12  1  0  0  0  0
 16 15  1  0  0  0  0
 17 18  1  0  0  0  0
 18 19  1  0  0  0  0
 18 20  1  0  0  0  0
 21 17  1  0  0  0  0
 22 21  1  0  0  0  0
 23 21  1  0  0  0  0
 24 25  1  0  0  0  0
 24 81  1  0  0  0  0
 26 24  1  0  0  0  0
 27 28  1  0  0  0  0
 29 27  1  0  0  0  0
 29 24  1  0  0  0  0
 30 31  1  0  0  0  0
 30 27  1  0  0  0  0
 32 33  1  0  0  0  0
 32 30  2  0  0  0  0
 32 46  9  0  0  0  0
 33 29  2  0  0  0  0
 34 33  1  0  0  0  0
 35 37  1  0  0  0  0
 35 36  1  0  0  0  0
 38 40  1  0  0  0  0
 39 38  1  0  0  0  0
 40 35  1  0  0  0  0
 41 43  2  0  0  0  0
 41 38  1  0  0  0  0
 42 41  1  0  0  0  0
 43 44  1  0  0  0  0
 43 46  9  0  0  0  0
 44 40  2  0  0  0  0
 44 45  1  0  0  0  0
 46 52  1  0  0  0  0
 47 46  9  0  0  0  0
 48 49  2  0  0  0  0
 48 55  1  0  0  0  0
 49 53  1  0  0  0  0
 50 48  1  0  0  0  0
 51 50  2  0  0  0  0
 51 52  1  0  0  0  0
 52 49  1  0  0  0  0
 55 57  1  0  0  0  0
 55 56  1  0  0  0  0
 58 59  2  0  0  0  0
 58 61  1  0  0  0  0
 60 54  1  0  0  0  0
 60 58  1  0  0  0  0
 61 83  1  0  0  0  0
 61 55  1  0  0  0  0
 62 61  1  0  0  0  0
 63 64  2  0  0  0  0
 64 65  1  0  0  0  0
 66 67  1  6  0  0  0
 66 68  1  0  0  0  0
 66 72  1  0  0  0  0
 66 64  1  0  0  0  0
 68 69  1  0  0  0  0
 70 68  1  0  0  0  0
 71 47  2  0  0  0  0
 71 68  1  1  0  0  0
 71 51  1  0  0  0  0
 72 73  1  0  0  0  0
 74 72  1  0  0  0  0
 74 76  1  0  0  0  0
 75 74  2  0  0  0  0
 76 84  1  0  0  0  0
 77 76  1  0  0  0  0
 78 76  1  0  0  0  0
 79  1  1  0  0  0  0
 80 12  1  0  0  0  0
 82 35  1  0  0  0  0
 85 46  1  0  0  0  0
M  RAD  1  17   2
M  CHG  2  46   1  65  -1
M  END
$$$$
