
 OpenBabel02052520093D

 87 89  0  0  0  0  0  0  0  0999 V2000
   -0.5873    4.7820    2.5258 C   0  0  0  0  0  0  0  0  0  0  0  0
    0.2978    4.3821    3.0295 H   0  0  0  0  0  0  0  0  0  0  0  0
   -0.2983    5.7234    2.0387 H   0  0  0  0  0  0  0  0  0  0  0  0
   -2.2380    4.0092    0.7621 N   0  0  0  0  0  0  0  0  0  0  0  0
   -2.7951    4.8514    0.7456 H   0  0  0  0  0  0  0  0  0  0  0  0
   -1.1173    3.7786    1.5534 C   0  0  0  0  0  0  0  0  0  0  0  0
   -2.4678    2.8966    0.0117 C   0  0  0  0  0  0  0  0  0  0  0  0
   -3.2948    2.8008   -0.6773 H   0  0  0  0  0  0  0  0  0  0  0  0
   -1.5641    1.9704    0.2739 N   0  0  0  0  0  0  0  0  0  0  0  0
   -0.7153    2.5074    1.2251 C   0  0  0  0  0  0  0  0  0  0  0  0
    0.1415    1.9527    1.5754 H   0  0  0  0  0  0  0  0  0  0  0  0
    1.4509    5.4512   -0.7832 C   0  0  0  0  0  0  0  0  0  0  0  0
    0.7379    4.6189   -0.8299 H   0  0  0  0  0  0  0  0  0  0  0  0
    1.3269    6.0038    0.1536 H   0  0  0  0  0  0  0  0  0  0  0  0
    2.8275    4.9696   -0.9034 N   0  0  0  0  0  0  0  0  0  0  0  0
    3.1930    4.9485   -1.8453 H   0  0  0  0  0  0  0  0  0  0  0  0
    3.3115    4.0076   -0.0822 C   0  0  0  0  0  3  0  0  0  0  0  0
    2.7107    3.7687    1.1006 N   0  0  0  0  0  0  0  0  0  0  0  0
    2.8297    2.7797    1.3997 H   0  0  0  0  0  0  0  0  0  0  0  0
    1.7158    3.9637    1.0834 H   0  0  0  0  0  0  0  0  0  0  0  0
    4.4454    3.3763   -0.3988 N   0  0  0  0  0  0  0  0  0  0  0  0
    4.8602    3.5629   -1.3016 H   0  0  0  0  0  0  0  0  0  0  0  0
    4.6755    2.4230   -0.0508 H   0  0  0  0  0  0  0  0  0  0  0  0
   -6.7531   -2.0815    0.8690 C   0  0  0  0  0  0  0  0  0  0  0  0
   -7.5267   -1.4154    0.4667 H   0  0  0  0  0  0  0  0  0  0  0  0
   -6.6764   -2.9413    0.1982 H   0  0  0  0  0  0  0  0  0  0  0  0
   -5.2046   -0.2908    1.7642 N   0  0  0  0  0  0  0  0  0  0  0  0
   -5.8943    0.1649    2.3438 H   0  0  0  0  0  0  0  0  0  0  0  0
   -5.4325   -1.3927    0.9525 C   0  0  0  0  0  0  0  0  0  0  0  0
   -3.9290    0.1331    1.5594 C   0  0  0  0  0  0  0  0  0  0  0  0
   -3.4958    0.9980    2.0382 H   0  0  0  0  0  0  0  0  0  0  0  0
   -3.3199   -0.6436    0.6849 N   0  0  0  0  0  0  0  0  0  0  0  0
   -4.2442   -1.5958    0.3005 C   0  0  0  0  0  0  0  0  0  0  0  0
   -3.9918   -2.3281   -0.4507 H   0  0  0  0  0  0  0  0  0  0  0  0
    1.0373   -1.4037    4.4053 C   0  0  0  0  0  0  0  0  0  0  0  0
    2.0026   -0.9410    4.6459 H   0  0  0  0  0  0  0  0  0  0  0  0
    0.2727   -0.9362    5.0329 H   0  0  0  0  0  0  0  0  0  0  0  0
    1.4545   -1.7682    1.9421 N   0  0  0  0  0  0  0  0  0  0  0  0
    2.2771   -2.3891    1.9651 H   0  0  0  0  0  0  0  0  0  0  0  0
    0.6940   -1.2316    2.9633 C   0  0  0  0  0  0  0  0  0  0  0  0
    0.8921   -1.4202    0.7737 C   0  0  0  0  0  0  0  0  0  0  0  0
    1.2781   -1.7522   -0.1708 H   0  0  0  0  0  0  0  0  0  0  0  0
   -0.1978   -0.6904    0.9614 N   0  0  0  0  0  0  0  0  0  0  0  0
   -0.3336   -0.5705    2.3346 C   0  0  0  0  0  0  0  0  0  0  0  0
   -1.1560   -0.0243    2.7700 H   0  0  0  0  0  0  0  0  0  0  0  0
   -1.5528   -0.1457   -0.6114 Fe  0  2  0  0  0  0  0  0  0  0  0  0
   -0.1918   -4.1768   -0.4673 C   0  0  0  0  0  0  0  0  0  0  0  0
   -1.2626   -3.3747   -0.1575 C   0  0  0  0  0  0  0  0  0  0  0  0
    0.2066   -3.7658   -1.7325 N   0  0  0  0  0  0  0  0  0  0  0  0
   -0.5850   -2.7256   -2.0990 C   0  0  0  0  0  0  0  0  0  0  0  0
   -1.4896   -2.4543   -1.1693 N   0  0  0  0  0  0  0  0  0  0  0  0
   -1.8437   -3.3467    0.7527 H   0  0  0  0  0  0  0  0  0  0  0  0
   -0.4649   -2.1774   -3.0211 H   0  0  0  0  0  0  0  0  0  0  0  0
    1.1664   -3.8966   -2.0576 H   0  0  0  0  0  0  0  0  0  0  0  0
    0.5436   -5.2255    0.3216 C   0  0  0  0  0  0  0  0  0  0  0  0
    0.0446   -6.1995    0.2194 H   0  0  0  0  0  0  0  0  0  0  0  0
    0.4820   -4.9507    1.3809 H   0  0  0  0  0  0  0  0  0  0  0  0
    2.7928   -4.0504    0.0318 C   0  0  0  0  0  0  0  0  0  0  0  0
    3.2181   -3.7042    1.1631 O   0  5  0  0  0  0  0  0  0  0  0  0
    2.8597   -3.3693   -1.0435 O   0  0  0  0  0  0  0  0  0  0  0  0
    2.0360   -5.3913   -0.0597 C   0  0  0  0  0  0  0  0  0  0  0  0
    2.1211   -5.7968   -1.0745 H   0  0  0  0  0  0  0  0  0  0  0  0
    1.4220    2.0384   -0.7146 O   0  0  0  0  0  0  0  0  0  0  0  0
    2.2421    1.1755   -0.2665 C   0  0  0  0  0  0  0  0  0  0  0  0
    2.6326    1.0823    0.9211 O   0  5  0  0  0  0  0  0  0  0  0  0
    2.9041    0.3094   -1.3719 C   0  0  2  0  0  0  0  0  0  0  0  0
    3.4862    1.0495   -1.9360 H   0  0  0  0  0  0  0  0  0  0  0  0
    1.8680   -0.3230   -2.3302 C   0  0  0  0  0  0  0  0  0  0  0  0
    2.2860   -0.3643   -3.3402 H   0  0  0  0  0  0  0  0  0  0  0  0
    1.6712   -1.3524   -2.0270 H   0  0  0  0  0  0  0  0  0  0  0  0
    0.2793    0.6012   -2.4054 S   0  0  0  0  0  0  0  0  0  0  0  0
    3.8174   -0.6882   -0.8633 N   0  0  0  0  0  0  0  0  0  0  0  0
    3.5252   -1.6795   -0.8534 H   0  0  0  0  0  0  0  0  0  0  0  0
    4.9788   -0.3431   -0.2699 C   0  0  0  0  0  0  0  0  0  0  0  0
    5.4061    0.8257   -0.2168 O   0  0  0  0  0  0  0  0  0  0  0  0
    5.7766   -1.5022    0.2974 C   0  0  0  0  0  0  0  0  0  0  0  0
    6.4676   -1.1164    1.0498 H   0  0  0  0  0  0  0  0  0  0  0  0
    6.3625   -1.9723   -0.5021 H   0  0  0  0  0  0  0  0  0  0  0  0
   -1.3212    5.0311    3.3035 H   0  0  0  0  0  0  0  0  0  0  0  0
    1.2594    6.1410   -1.6067 H   0  0  0  0  0  0  0  0  0  0  0  0
   -7.0927   -2.4465    1.8470 H   0  0  0  0  0  0  0  0  0  0  0  0
    1.1015   -2.4632    4.6833 H   0  0  0  0  0  0  0  0  0  0  0  0
    2.4865   -6.1080    0.6332 H   0  0  0  0  0  0  0  0  0  0  0  0
    5.1202   -2.2653    0.7301 H   0  0  0  0  0  0  0  0  0  0  0  0
   -2.9466    0.4110   -2.0228 N   0  0  0  0  0  0  0  0  0  0  0  0
   -4.0425    0.8682   -2.0579 C   0  0  0  0  0  0  0  0  0  0  0  0
   -5.5279    1.5386   -2.0442 S   0  0  0  0  0  0  0  0  0  0  0  0
  1  2  1  0  0  0  0
  1 79  1  0  0  0  0
  3  1  1  0  0  0  0
  4  6  1  0  0  0  0
  5  4  1  0  0  0  0
  6  1  1  0  0  0  0
  7  9  2  0  0  0  0
  7  4  1  0  0  0  0
  8  7  1  0  0  0  0
  9 10  1  0  0  0  0
  9 46  9  0  0  0  0
 10  6  2  0  0  0  0
 10 11  1  0  0  0  0
 12 14  1  0  0  0  0
 13 12  1  0  0  0  0
 15 12  1  0  0  0  0
 15 17  1  0  0  0  0
 16 15  1  0  0  0  0
 17 18  1  0  0  0  0
 18 19  1  0  0  0  0
 20 18  1  0  0  0  0
 21 17  1  0  0  0  0
 21 23  1  0  0  0  0
 22 21  1  0  0  0  0
 24 29  1  0  0  0  0
 24 81  1  0  0  0  0
 25 24  1  0  0  0  0
 26 24  1  0  0  0  0
 27 28  1  0  0  0  0
 29 27  1  0  0  0  0
 30 27  1  0  0  0  0
 30 31  1  0  0  0  0
 32 30  2  0  0  0  0
 32 46  9  0  0  0  0
 33 32  1  0  0  0  0
 33 29  2  0  0  0  0
 34 33  1  0  0  0  0
 35 36  1  0  0  0  0
 35 82  1  0  0  0  0
 35 37  1  0  0  0  0
 38 39  1  0  0  0  0
 38 40  1  0  0  0  0
 40 35  1  0  0  0  0
 41 43  2  0  0  0  0
 41 38  1  0  0  0  0
 42 41  1  0  0  0  0
 43 44  1  0  0  0  0
 43 46  9  0  0  0  0
 44 45  1  0  0  0  0
 44 40  2  0  0  0  0
 47 48  2  0  0  0  0
 47 55  1  0  0  0  0
 48 52  1  0  0  0  0
 49 47  1  0  0  0  0
 50 49  1  0  0  0  0
 50 51  2  0  0  0  0
 51 48  1  0  0  0  0
 51 46  9  0  0  0  0
 53 50  1  0  0  0  0
 54 49  1  0  0  0  0
 55 57  1  0  0  0  0
 56 55  1  0  0  0  0
 58 59  1  0  0  0  0
 60 58  2  0  0  0  0
 61 58  1  0  0  0  0
 61 55  1  0  0  0  0
 61 83  1  0  0  0  0
 62 61  1  0  0  0  0
 63 64  2  0  0  0  0
 64 65  1  0  0  0  0
 66 67  1  6  0  0  0
 66 72  1  0  0  0  0
 66 64  1  0  0  0  0
 68 70  1  0  0  0  0
 68 66  1  0  0  0  0
 69 68  1  0  0  0  0
 71 68  1  0  0  0  0
 71 46  1  0  0  0  0
 72 73  1  0  0  0  0
 72 74  1  0  0  0  0
 74 75  2  0  0  0  0
 74 76  1  0  0  0  0
 76 84  1  0  0  0  0
 76 77  1  0  0  0  0
 78 76  1  0  0  0  0
 80 12  1  0  0  0  0
 85 46  1  0  0  0  0
 86 87  2  0  0  0  0
 86 85  2  0  0  0  0
M  RAD  1  17   2
M  CHG  3  46   2  59  -1  65  -1
M  END
$$$$
