
 OpenBabel02052520093D

 85 87  0  0  0  0  0  0  0  0999 V2000
   -0.5221    5.5934    2.3386 C   0  0  0  0  0  0  0  0  0  0  0  0
   -0.3767    5.0400    3.2705 H   0  0  0  0  0  0  0  0  0  0  0  0
    0.4426    6.0423    2.0673 H   0  0  0  0  0  0  0  0  0  0  0  0
   -1.2803    5.0744   -0.0236 N   0  0  0  0  0  0  0  0  0  0  0  0
   -1.1481    6.0060   -0.3893 H   0  0  0  0  0  0  0  0  0  0  0  0
   -1.0218    4.6677    1.2799 C   0  0  0  0  0  0  0  0  0  0  0  0
   -1.6961    3.9917   -0.7361 C   0  0  0  0  0  0  0  0  0  0  0  0
   -1.9345    3.9713   -1.7892 H   0  0  0  0  0  0  0  0  0  0  0  0
   -1.7281    2.9246    0.0373 N   0  0  0  0  0  0  0  0  0  0  0  0
   -1.3097    3.3259    1.2880 C   0  0  0  0  0  0  0  0  0  0  0  0
   -1.2148    2.6123    2.0927 H   0  0  0  0  0  0  0  0  0  0  0  0
    7.3930    3.4059   -0.8508 C   0  0  0  0  0  0  0  0  0  0  0  0
    6.4451    3.8996   -1.0978 H   0  0  0  0  0  0  0  0  0  0  0  0
    7.8483    3.9074    0.0128 H   0  0  0  0  0  0  0  0  0  0  0  0
    7.1994    1.9865   -0.6056 N   0  0  0  0  0  0  0  0  0  0  0  0
    7.7049    1.3192   -1.1695 H   0  0  0  0  0  0  0  0  0  0  0  0
    6.3509    1.4754    0.3117 C   0  0  0  0  0  3  0  0  0  0  0  0
    5.7070    2.2770    1.1733 N   0  0  0  0  0  0  0  0  0  0  0  0
    4.8773    1.8584    1.6299 H   0  0  0  0  0  0  0  0  0  0  0  0
    5.7819    3.2794    1.1062 H   0  0  0  0  0  0  0  0  0  0  0  0
    6.1869    0.1532    0.4039 N   0  0  0  0  0  0  0  0  0  0  0  0
    6.2150   -0.4079   -0.4590 H   0  0  0  0  0  0  0  0  0  0  0  0
    5.3607   -0.1003    0.9795 H   0  0  0  0  0  0  0  0  0  0  0  0
   -7.7852   -0.0234   -0.9098 C   0  0  0  0  0  0  0  0  0  0  0  0
   -8.4393    0.7781   -1.2770 H   0  0  0  0  0  0  0  0  0  0  0  0
   -7.7402   -0.7947   -1.6835 H   0  0  0  0  0  0  0  0  0  0  0  0
   -6.1424    1.4535    0.3308 N   0  0  0  0  0  0  0  0  0  0  0  0
   -6.8300    1.9285    0.8977 H   0  0  0  0  0  0  0  0  0  0  0  0
   -6.4078    0.4705   -0.6148 C   0  0  0  0  0  0  0  0  0  0  0  0
   -4.7989    1.6767    0.3480 C   0  0  0  0  0  0  0  0  0  0  0  0
   -4.3030    2.3931    0.9859 H   0  0  0  0  0  0  0  0  0  0  0  0
   -4.1946    0.8931   -0.5198 N   0  0  0  0  0  0  0  0  0  0  0  0
   -5.1778    0.1422   -1.1279 C   0  0  0  0  0  0  0  0  0  0  0  0
   -4.9203   -0.5726   -1.8951 H   0  0  0  0  0  0  0  0  0  0  0  0
   -2.4226   -2.7744    3.4739 C   0  0  0  0  0  0  0  0  0  0  0  0
   -2.3654   -2.4898    4.5332 H   0  0  0  0  0  0  0  0  0  0  0  0
   -3.4554   -3.0690    3.2616 H   0  0  0  0  0  0  0  0  0  0  0  0
   -0.6505   -1.4255    2.3224 N   0  0  0  0  0  0  0  0  0  0  0  0
    0.0860   -2.1367    2.4728 H   0  0  0  0  0  0  0  0  0  0  0  0
   -1.9903   -1.6652    2.5708 C   0  0  0  0  0  0  0  0  0  0  0  0
   -0.5661   -0.4021    1.4464 C   0  0  0  0  0  0  0  0  0  0  0  0
    0.3595    0.0337    1.1125 H   0  0  0  0  0  0  0  0  0  0  0  0
   -1.7708    0.0489    1.1131 N   0  0  0  0  0  0  0  0  0  0  0  0
   -2.6683   -0.7297    1.8288 C   0  0  0  0  0  0  0  0  0  0  0  0
   -3.7337   -0.5867    1.7292 H   0  0  0  0  0  0  0  0  0  0  0  0
   -2.0252    0.9424   -0.9628 Fe  0  2  0  0  0  0  0  0  0  0  0  0
   -1.7908   -3.3199   -0.7546 C   0  0  0  0  0  0  0  0  0  0  0  0
   -2.7091   -2.3041   -0.8438 C   0  0  0  0  0  0  0  0  0  0  0  0
   -0.7891   -2.9754   -1.6525 N   0  0  0  0  0  0  0  0  0  0  0  0
   -1.1194   -1.7740   -2.1930 C   0  0  0  0  0  0  0  0  0  0  0  0
   -2.2760   -1.3276   -1.7258 N   0  0  0  0  0  0  0  0  0  0  0  0
   -3.6343   -2.1901   -0.3011 H   0  0  0  0  0  0  0  0  0  0  0  0
   -0.4957   -1.2412   -2.8929 H   0  0  0  0  0  0  0  0  0  0  0  0
    0.1648   -3.3348   -1.5507 H   0  0  0  0  0  0  0  0  0  0  0  0
   -1.7530   -4.5568    0.0991 C   0  0  0  0  0  0  0  0  0  0  0  0
   -2.3872   -5.3391   -0.3429 H   0  0  0  0  0  0  0  0  0  0  0  0
   -2.2013   -4.3048    1.0658 H   0  0  0  0  0  0  0  0  0  0  0  0
    0.6361   -4.0891    0.8835 C   0  0  0  0  0  0  0  0  0  0  0  0
    0.5701   -3.8175    2.1058 O   0  5  0  0  0  0  0  0  0  0  0  0
    1.3881   -3.5374    0.0122 O   0  0  0  0  0  0  0  0  0  0  0  0
   -0.3436   -5.1483    0.3374 C   0  0  0  0  0  0  0  0  0  0  0  0
    0.0499   -5.5640   -0.5971 H   0  0  0  0  0  0  0  0  0  0  0  0
    1.9465    1.3926    0.8116 O   0  0  0  0  0  0  0  0  0  0  0  0
    2.8741    0.5492    0.7479 C   0  0  0  0  0  0  0  0  0  0  0  0
    3.7895    0.4061    1.6151 O   0  5  0  0  0  0  0  0  0  0  0  0
    2.9493   -0.3215   -0.5425 C   0  0  2  0  0  0  0  0  0  0  0  0
    3.6761    0.1749   -1.1961 H   0  0  0  0  0  0  0  0  0  0  0  0
    1.5914   -0.4314   -1.2533 C   0  0  0  0  0  0  0  0  0  0  0  0
    1.7673   -0.8482   -2.2523 H   0  0  0  0  0  0  0  0  0  0  0  0
    0.9713   -1.1452   -0.7073 H   0  0  0  0  0  0  0  0  0  0  0  0
    0.6964    1.1436   -1.4532 S   0  0  0  0  0  0  0  0  0  0  0  0
    3.4337   -1.6729   -0.3033 N   0  0  0  0  0  0  0  0  0  0  0  0
    2.7365   -2.3317    0.0827 H   0  0  0  0  0  0  0  0  0  0  0  0
    4.5053   -2.2083   -0.9248 C   0  0  0  0  0  0  0  0  0  0  0  0
    5.3425   -1.5436   -1.5691 O   0  0  0  0  0  0  0  0  0  0  0  0
    4.6692   -3.7079   -0.7496 C   0  0  0  0  0  0  0  0  0  0  0  0
    5.0828   -4.1206   -1.6736 H   0  0  0  0  0  0  0  0  0  0  0  0
    3.7247   -4.1988   -0.4999 H   0  0  0  0  0  0  0  0  0  0  0  0
   -1.2249    6.4128    2.5412 H   0  0  0  0  0  0  0  0  0  0  0  0
    8.0655    3.5209   -1.7022 H   0  0  0  0  0  0  0  0  0  0  0  0
   -8.2632   -0.4652   -0.0255 H   0  0  0  0  0  0  0  0  0  0  0  0
   -1.7663   -3.6402    3.3287 H   0  0  0  0  0  0  0  0  0  0  0  0
   -0.4352   -5.9631    1.0628 H   0  0  0  0  0  0  0  0  0  0  0  0
    5.3920   -3.8986    0.0529 H   0  0  0  0  0  0  0  0  0  0  0  0
   -2.2054    1.8490   -2.5416 F   0  0  0  0  0  0  0  0  0  0  0  0
  1 79  1  0  0  0  0
  1  2  1  0  0  0  0
  3  1  1  0  0  0  0
  4  6  1  0  0  0  0
  5  4  1  0  0  0  0
  6 10  2  0  0  0  0
  6  1  1  0  0  0  0
  7  4  1  0  0  0  0
  7  9  2  0  0  0  0
  8  7  1  0  0  0  0
  9 10  1  0  0  0  0
  9 46  9  0  0  0  0
 10 11  1  0  0  0  0
 12 15  1  0  0  0  0
 12 14  1  0  0  0  0
 13 12  1  0  0  0  0
 15 17  1  0  0  0  0
 16 15  1  0  0  0  0
 17 21  1  0  0  0  0
 17 18  1  0  0  0  0
 18 19  1  0  0  0  0
 20 18  1  0  0  0  0
 21 23  1  0  0  0  0
 22 21  1  0  0  0  0
 24 29  1  0  0  0  0
 24 81  1  0  0  0  0
 25 24  1  0  0  0  0
 26 24  1  0  0  0  0
 27 30  1  0  0  0  0
 27 28  1  0  0  0  0
 29 27  1  0  0  0  0
 30 31  1  0  0  0  0
 32 30  2  0  0  0  0
 32 46  9  0  0  0  0
 33 29  2  0  0  0  0
 33 32  1  0  0  0  0
 34 33  1  0  0  0  0
 35 36  1  0  0  0  0
 37 35  1  0  0  0  0
 38 39  1  0  0  0  0
 38 40  1  0  0  0  0
 40 35  1  0  0  0  0
 41 38  1  0  0  0  0
 42 41  1  0  0  0  0
 43 41  2  0  0  0  0
 43 44  1  0  0  0  0
 43 46  9  0  0  0  0
 44 40  2  0  0  0  0
 45 44  1  0  0  0  0
 47 55  1  0  0  0  0
 48 47  2  0  0  0  0
 48 52  1  0  0  0  0
 49 54  1  0  0  0  0
 49 47  1  0  0  0  0
 50 51  2  0  0  0  0
 50 49  1  0  0  0  0
 51 48  1  0  0  0  0
 51 46  9  0  0  0  0
 53 50  1  0  0  0  0
 55 61  1  0  0  0  0
 55 57  1  0  0  0  0
 56 55  1  0  0  0  0
 58 59  1  0  0  0  0
 60 58  2  0  0  0  0
 61 58  1  0  0  0  0
 61 83  1  0  0  0  0
 62 61  1  0  0  0  0
 64 63  2  0  0  0  0
 64 65  1  0  0  0  0
 66 67  1  6  0  0  0
 66 72  1  0  0  0  0
 66 64  1  0  0  0  0
 68 70  1  0  0  0  0
 68 66  1  0  0  0  0
 69 68  1  0  0  0  0
 71 68  1  0  0  0  0
 71 46  1  0  0  0  0
 72 73  1  0  0  0  0
 74 76  1  0  0  0  0
 74 72  1  0  0  0  0
 75 74  2  0  0  0  0
 76 78  1  0  0  0  0
 76 84  1  0  0  0  0
 77 76  1  0  0  0  0
 80 12  1  0  0  0  0
 82 35  1  0  0  0  0
 85 46  1  0  0  0  0
M  RAD  1  17   2
M  CHG  3  46   2  59  -1  65  -1
M  END
$$$$
