
     RDKit          3D

  0  0  0  0  0  0  0  0  0  0999 V3000
M  V30 BEGIN CTAB
M  V30 COUNTS 56 58 0 0 0
M  V30 BEGIN ATOM
M  V30 1 Fe -0.053760 -0.047010 -0.061550 0 CHG=2 VAL=5
M  V30 2 N -1.553700 -1.656800 0.064100 0
M  V30 3 N 1.392300 -1.736200 0.119700 0
M  V30 4 N 1.535900 1.459700 -0.397300 0
M  V30 5 N -1.386600 1.606100 -0.475300 0
M  V30 6 C -0.806700 -2.807500 -0.535100 0
M  V30 7 H -1.393400 -3.727400 -0.411800 0
M  V30 8 H -0.715500 -2.612600 -1.602400 0
M  V30 9 C 0.556800 -2.995600 0.106300 0
M  V30 10 H 1.102300 -3.788700 -0.417700 0
M  V30 11 H 0.444000 -3.322500 1.140100 0
M  V30 12 C 2.337200 -1.692200 -1.043800 0
M  V30 13 H 3.055400 -2.513800 -0.919000 0
M  V30 14 H 1.772800 -1.937500 -1.949000 0
M  V30 15 C 3.138100 -0.390800 -1.217900 0
M  V30 16 H 3.788500 -0.560200 -2.084500 0
M  V30 17 H 3.827400 -0.263700 -0.378800 0
M  V30 18 C 2.403100 0.928900 -1.505400 0
M  V30 19 H 1.778300 0.851900 -2.395000 0
M  V30 20 H 3.165400 1.691800 -1.711600 0
M  V30 21 C 0.820900 2.717700 -0.831600 0
M  V30 22 H 0.759400 3.374700 0.036500 0
M  V30 23 H 1.427600 3.240600 -1.579500 0
M  V30 24 C -0.561900 2.454000 -1.399300 0
M  V30 25 H -0.496200 1.924300 -2.346800 0
M  V30 26 H -1.075900 3.408900 -1.568100 0
M  V30 27 C -2.621100 1.160400 -1.202200 0
M  V30 28 H -2.315100 0.865400 -2.205800 0
M  V30 29 H -3.270000 2.041000 -1.292100 0
M  V30 30 C -3.391200 0.012100 -0.550500 0
M  V30 31 H -3.595600 0.199300 0.507900 0
M  V30 32 H -4.374200 -0.016600 -1.034000 0
M  V30 33 C -2.753600 -1.358100 -0.780200 0
M  V30 34 H -2.443800 -1.436700 -1.822600 0
M  V30 35 H -3.489700 -2.148600 -0.584500 0
M  V30 36 C -1.970000 -1.949300 1.462700 0
M  V30 37 H -2.624900 -2.828900 1.470400 0
M  V30 38 H -1.102000 -2.131800 2.091000 0
M  V30 39 H -2.505300 -1.094700 1.872100 0
M  V30 40 C 2.168800 -1.742400 1.394100 0
M  V30 41 H 2.771900 -2.656800 1.448600 0
M  V30 42 H 1.480900 -1.705700 2.236500 0
M  V30 43 H 2.834000 -0.886800 1.448500 0
M  V30 44 C 2.380400 1.813500 0.778600 0
M  V30 45 H 2.870200 0.936500 1.188300 0
M  V30 46 H 1.771800 2.269600 1.556100 0
M  V30 47 H 3.147700 2.535900 0.474100 0
M  V30 48 C -1.766900 2.360400 0.751400 0
M  V30 49 H -0.882900 2.736700 1.261800 0
M  V30 50 H -2.312900 1.708800 1.431100 0
M  V30 51 H -2.401400 3.210900 0.477200 0
M  V30 52 O -0.203000 -0.285800 -1.821700 0 RAD=2 VAL=1
M  V30 53 H 0.482600 -0.793600 -2.280200 0
M  V30 54 N -0.081100 0.141900 1.752500 0
M  V30 55 N 0.108500 0.894000 2.690000 0 CHG=1 VAL=4
M  V30 56 N 0.261300 1.559000 3.610900 0 CHG=-1 VAL=2
M  V30 END ATOM
M  V30 BEGIN BOND
M  V30 1 1 19 18
M  V30 2 1 25 24
M  V30 3 1 53 52
M  V30 4 1 28 27
M  V30 5 1 16 15
M  V30 6 1 14 12
M  V30 7 1 34 33
M  V30 8 1 20 18
M  V30 9 1 8 6
M  V30 10 1 23 21
M  V30 11 1 26 24
M  V30 12 1 18 15
M  V30 13 1 18 4
M  V30 14 1 24 21
M  V30 15 1 24 5
M  V30 16 1 29 27
M  V30 17 1 15 12
M  V30 18 1 15 17
M  V30 19 1 27 30
M  V30 20 1 27 5
M  V30 21 1 12 13
M  V30 22 1 12 3
M  V30 23 1 32 30
M  V30 24 1 21 4
M  V30 25 1 21 22
M  V30 26 1 33 35
M  V30 27 1 33 30
M  V30 28 1 33 2
M  V30 29 1 30 31
M  V30 30 1 6 7
M  V30 31 1 6 2
M  V30 32 1 6 9
M  V30 33 1 5 48
M  V30 34 1 10 9
M  V30 35 1 4 44
M  V30 36 1 2 36
M  V30 37 1 9 3
M  V30 38 1 9 11
M  V30 39 1 3 40
M  V30 40 1 47 44
M  V30 41 1 51 48
M  V30 42 1 48 49
M  V30 43 1 48 50
M  V30 44 1 44 45
M  V30 45 1 44 46
M  V30 46 1 40 43
M  V30 47 1 40 41
M  V30 48 1 40 42
M  V30 49 1 36 37
M  V30 50 1 36 39
M  V30 51 1 36 38
M  V30 52 2 54 55
M  V30 53 2 55 56
M  V30 54 1 1 54
M  V30 55 9 2 1
M  V30 56 9 3 1
M  V30 57 9 4 1
M  V30 58 9 5 1
M  V30 END BOND
M  V30 END CTAB
M  END
