
     RDKit          3D

  0  0  0  0  0  0  0  0  0  0999 V3000
M  V30 BEGIN CTAB
M  V30 COUNTS 54 57 0 0 0
M  V30 BEGIN ATOM
M  V30 1 Fe 0.018470 -0.000020 -0.362370 0 CHG=2 VAL=6
M  V30 2 N 1.439640 -1.644870 -0.325910 0
M  V30 3 N -1.469070 -1.627520 -0.367020 0
M  V30 4 N -1.469440 1.627280 -0.367040 0
M  V30 5 N 1.439280 1.645210 -0.325760 0
M  V30 6 C 0.720540 -2.719550 0.435030 0
M  V30 7 H 1.261330 -3.666350 0.308340 0
M  V30 8 H 0.749540 -2.457550 1.488450 0
M  V30 9 C -0.720160 -2.911070 -0.038690 0
M  V30 10 H -1.272200 -3.455440 0.732950 0
M  V30 11 H -0.736240 -3.530650 -0.935810 0
M  V30 12 C -2.545060 -1.329280 0.650140 0
M  V30 13 H -3.280150 -2.142110 0.581190 0
M  V30 14 H -2.086310 -1.379850 1.634590 0
M  V30 15 C -3.295830 -0.000330 0.467090 0
M  V30 16 H -4.067450 -0.000400 1.246770 0
M  V30 17 H -3.858780 -0.000300 -0.470880 0
M  V30 18 C -2.545190 1.328670 0.650280 0
M  V30 19 H -2.086240 1.379130 1.634650 0
M  V30 20 H -3.280400 2.141410 0.581620 0
M  V30 21 C -0.720750 2.910970 -0.038650 0
M  V30 22 H -0.736820 3.530530 -0.935770 0
M  V30 23 H -1.273000 3.455270 0.732900 0
M  V30 24 C 0.719910 2.719680 0.435220 0
M  V30 25 H 0.748860 2.457560 1.488610 0
M  V30 26 H 1.260520 3.666610 0.308690 0
M  V30 27 C 2.723570 1.291490 0.370450 0
M  V30 28 H 2.515930 1.226610 1.438260 0
M  V30 29 H 3.410350 2.133310 0.214950 0
M  V30 30 C 3.393150 0.000410 -0.106730 0
M  V30 31 H 3.550420 0.000480 -1.189120 0
M  V30 32 H 4.398670 0.000500 0.329470 0
M  V30 33 C 2.723860 -1.290860 0.370320 0
M  V30 34 H 2.516210 -1.226130 1.438140 0
M  V30 35 H 3.410840 -2.132510 0.214730 0
M  V30 36 C 1.738680 -2.106490 -1.713820 0
M  V30 37 H 2.427670 -2.957170 -1.661350 0
M  V30 38 H 0.825490 -2.408710 -2.217880 0
M  V30 39 H 2.188670 -1.301540 -2.288910 0
M  V30 40 C -2.112550 -1.833960 -1.699260 0
M  V30 41 H -2.798470 -2.687170 -1.644260 0
M  V30 42 H -1.355220 -2.041060 -2.454050 0
M  V30 43 H -2.691750 -0.961420 -1.991350 0
M  V30 44 C -2.113240 1.833780 -1.699090 0
M  V30 45 H -2.692070 0.961040 -1.991350 0
M  V30 46 H -1.356160 2.041680 -2.453930 0
M  V30 47 H -2.799580 2.686630 -1.643830 0
M  V30 48 C 1.738240 2.106900 -1.713660 0
M  V30 49 H 0.825020 2.409150 -2.217660 0
M  V30 50 H 2.188180 1.301980 -2.288820 0
M  V30 51 H 2.427200 2.957610 -1.661230 0
M  V30 52 O 0.092450 -0.000270 -2.115140 0
M  V30 53 H -0.744730 0.002230 -2.609230 0
M  V30 54 Br 0.096490 -0.000100 2.117500 0
M  V30 END ATOM
M  V30 BEGIN BOND
M  V30 1 1 53 52
M  V30 2 1 42 40
M  V30 3 1 46 44
M  V30 4 1 39 36
M  V30 5 1 50 48
M  V30 6 1 38 36
M  V30 7 1 49 48
M  V30 8 1 52 1
M  V30 9 1 43 40
M  V30 10 1 45 44
M  V30 11 1 36 37
M  V30 12 1 36 2
M  V30 13 1 48 51
M  V30 14 1 48 5
M  V30 15 1 40 41
M  V30 16 1 40 3
M  V30 17 1 44 47
M  V30 18 1 44 4
M  V30 19 1 31 30
M  V30 20 1 11 9
M  V30 21 1 22 21
M  V30 22 1 17 15
M  V30 23 1 4 21
M  V30 24 1 4 18
M  V30 25 1 3 9
M  V30 26 1 3 12
M  V30 27 1 1 54
M  V30 28 1 2 33
M  V30 29 1 2 6
M  V30 30 1 5 27
M  V30 31 1 5 24
M  V30 32 1 30 32
M  V30 33 1 30 33
M  V30 34 1 30 27
M  V30 35 1 9 6
M  V30 36 1 9 10
M  V30 37 1 21 24
M  V30 38 1 21 23
M  V30 39 1 35 33
M  V30 40 1 29 27
M  V30 41 1 7 6
M  V30 42 1 26 24
M  V30 43 1 33 34
M  V30 44 1 27 28
M  V30 45 1 6 8
M  V30 46 1 24 25
M  V30 47 1 15 12
M  V30 48 1 15 18
M  V30 49 1 15 16
M  V30 50 1 13 12
M  V30 51 1 20 18
M  V30 52 1 12 14
M  V30 53 1 18 19
M  V30 54 9 2 1
M  V30 55 9 3 1
M  V30 56 9 4 1
M  V30 57 9 5 1
M  V30 END BOND
M  V30 END CTAB
M  END
