
     RDKit          3D

  0  0  0  0  0  0  0  0  0  0999 V3000
M  V30 BEGIN CTAB
M  V30 COUNTS 54 57 0 0 0
M  V30 BEGIN ATOM
M  V30 1 Fe -0.025310 -0.000120 0.171060 0 CHG=2 VAL=6
M  V30 2 N -1.449720 -1.653550 0.096040 0
M  V30 3 N 1.469170 -1.621060 0.183550 0
M  V30 4 N 1.470600 1.620170 0.183630 0
M  V30 5 N -1.448560 1.654610 0.095520 0
M  V30 6 C -0.690090 -2.706970 -0.659810 0
M  V30 7 H -1.235870 -3.657150 -0.595750 0
M  V30 8 H -0.657780 -2.408150 -1.703570 0
M  V30 9 C 0.715370 -2.905230 -0.104750 0
M  V30 10 H 1.293440 -3.506480 -0.813530 0
M  V30 11 H 0.672730 -3.468620 0.827870 0
M  V30 12 C 2.509530 -1.330600 -0.866490 0
M  V30 13 H 3.248130 -2.141540 -0.809220 0
M  V30 14 H 2.022000 -1.392480 -1.837070 0
M  V30 15 C 3.266920 -0.001200 -0.716660 0
M  V30 16 H 4.006710 -0.001550 -1.526420 0
M  V30 17 H 3.863530 -0.001440 0.199520 0
M  V30 18 C 2.510610 1.328800 -0.866570 0
M  V30 19 H 2.022970 1.390940 -1.837070 0
M  V30 20 H 3.249850 2.139180 -0.809500 0
M  V30 21 C 0.717390 2.904660 -0.104860 0
M  V30 22 H 0.674560 3.467880 0.827860 0
M  V30 23 H 1.296060 3.505790 -0.813250 0
M  V30 24 C -0.687910 2.707090 -0.660480 0
M  V30 25 H -0.655340 2.407760 -1.704090 0
M  V30 26 H -1.233050 3.657700 -0.597130 0
M  V30 27 C -2.705560 1.295380 -0.647020 0
M  V30 28 H -2.454290 1.226280 -1.705160 0
M  V30 29 H -3.400960 2.135600 -0.523030 0
M  V30 30 C -3.389110 0.001250 -0.195310 0
M  V30 31 H -3.589150 0.001530 0.881060 0
M  V30 32 H -4.379840 0.001500 -0.664330 0
M  V30 33 C -2.706600 -1.293600 -0.646490 0
M  V30 34 H -2.455410 -1.225220 -1.704690 0
M  V30 35 H -3.402610 -2.133220 -0.521960 0
M  V30 36 C -1.798810 -2.153880 1.456560 0
M  V30 37 H -2.381600 -3.077720 1.367170 0
M  V30 38 H -0.899310 -2.347750 2.035950 0
M  V30 39 H -2.410040 -1.418340 1.980590 0
M  V30 40 C 2.123790 -1.786090 1.514690 0
M  V30 41 H 2.783480 -2.661210 1.478160 0
M  V30 42 H 1.368830 -1.918520 2.285450 0
M  V30 43 H 2.715670 -0.914160 1.766970 0
M  V30 44 C 2.125500 1.785420 1.514540 0
M  V30 45 H 2.718410 0.914060 1.766410 0
M  V30 46 H 1.370640 1.917000 2.285580 0
M  V30 47 H 2.784400 2.661140 1.478010 0
M  V30 48 C -1.797360 2.155610 1.455900 0
M  V30 49 H -0.897730 2.348850 2.035260 0
M  V30 50 H -2.409110 1.420640 1.980120 0
M  V30 51 H -2.379510 3.079800 1.366140 0
M  V30 52 O 0.013820 0.000440 1.920650 0
M  V30 53 H -0.833670 0.000270 2.398290 0
M  V30 54 Cl -0.077700 -0.000460 -2.079900 0
M  V30 END ATOM
M  V30 BEGIN BOND
M  V30 1 1 54 1
M  V30 2 1 19 18
M  V30 3 1 14 12
M  V30 4 1 28 27
M  V30 5 1 34 33
M  V30 6 1 25 24
M  V30 7 1 8 6
M  V30 8 1 16 15
M  V30 9 1 18 20
M  V30 10 1 18 15
M  V30 11 1 18 4
M  V30 12 1 12 13
M  V30 13 1 12 15
M  V30 14 1 12 3
M  V30 15 1 10 9
M  V30 16 1 23 21
M  V30 17 1 15 17
M  V30 18 1 32 30
M  V30 19 1 24 26
M  V30 20 1 24 21
M  V30 21 1 24 5
M  V30 22 1 6 7
M  V30 23 1 6 9
M  V30 24 1 6 2
M  V30 25 1 27 29
M  V30 26 1 27 30
M  V30 27 1 27 5
M  V30 28 1 33 35
M  V30 29 1 33 30
M  V30 30 1 33 2
M  V30 31 1 30 31
M  V30 32 1 21 4
M  V30 33 1 21 22
M  V30 34 1 9 3
M  V30 35 1 9 11
M  V30 36 1 5 48
M  V30 37 1 2 36
M  V30 38 1 1 52
M  V30 39 1 3 40
M  V30 40 1 4 44
M  V30 41 1 51 48
M  V30 42 1 37 36
M  V30 43 1 48 50
M  V30 44 1 48 49
M  V30 45 1 36 39
M  V30 46 1 36 38
M  V30 47 1 47 44
M  V30 48 1 41 40
M  V30 49 1 44 45
M  V30 50 1 44 46
M  V30 51 1 40 43
M  V30 52 1 40 42
M  V30 53 1 52 53
M  V30 54 9 2 1
M  V30 55 9 3 1
M  V30 56 9 4 1
M  V30 57 9 5 1
M  V30 END BOND
M  V30 END CTAB
M  END
