
     RDKit          3D

  0  0  0  0  0  0  0  0  0  0999 V3000
M  V30 BEGIN CTAB
M  V30 COUNTS 60 63 0 0 0
M  V30 BEGIN ATOM
M  V30 1 Fe -0.701120 0.157270 0.090670 0 CHG=1 VAL=6
M  V30 2 N 0.035970 1.466360 1.753170 0
M  V30 3 N -0.791770 -1.399250 1.688000 0
M  V30 4 N -1.591650 -1.197050 -1.457690 0
M  V30 5 N -0.765310 1.685190 -1.522140 0
M  V30 6 C -0.675700 0.837990 2.904430 0
M  V30 7 H -0.333820 1.280060 3.851760 0
M  V30 8 H -1.737470 1.048440 2.786180 0
M  V30 9 C -0.452540 -0.673160 2.959390 0
M  V30 10 H -1.037110 -1.089140 3.789860 0
M  V30 11 H 0.595910 -0.879430 3.179780 0
M  V30 12 C -2.208800 -1.887090 1.709470 0
M  V30 13 H -2.303420 -2.620590 2.524060 0
M  V30 14 H -2.832420 -1.024350 1.940920 0
M  V30 15 C -2.718080 -2.548450 0.414430 0
M  V30 16 H -3.729930 -2.899800 0.651690 0
M  V30 17 H -2.150370 -3.459280 0.201600 0
M  V30 18 C -2.871540 -1.697340 -0.861170 0
M  V30 19 H -3.485420 -0.825120 -0.641890 0
M  V30 20 H -3.382620 -2.310310 -1.618460 0
M  V30 21 C -1.843890 -0.293190 -2.631910 0
M  V30 22 H -1.023250 -0.447020 -3.334030 0
M  V30 23 H -2.763310 -0.602600 -3.145710 0
M  V30 24 C -1.949200 1.193520 -2.289670 0
M  V30 25 H -2.830370 1.368090 -1.674520 0
M  V30 26 H -2.056740 1.762020 -3.224890 0
M  V30 27 C -1.026170 3.047010 -0.971240 0
M  V30 28 H -2.065740 3.078970 -0.634570 0
M  V30 29 H -0.939600 3.773590 -1.791620 0
M  V30 30 C -0.106380 3.479060 0.182250 0
M  V30 31 H 0.944620 3.326340 -0.081500 0
M  V30 32 H -0.225790 4.564140 0.283680 0
M  V30 33 C -0.413010 2.875290 1.562280 0
M  V30 34 H -1.490980 2.910410 1.740840 0
M  V30 35 H 0.054540 3.497330 2.338870 0
M  V30 36 C 1.504770 1.432760 1.951810 0
M  V30 37 H 1.779670 1.994910 2.855020 0
M  V30 38 H 1.854120 0.407650 2.031920 0
M  V30 39 H 2.005160 1.862760 1.087110 0
M  V30 40 C 0.164310 -2.526620 1.547910 0
M  V30 41 H 0.114120 -3.182620 2.427510 0
M  V30 42 H 1.171870 -2.129880 1.434520 0
M  V30 43 H -0.067390 -3.115680 0.665070 0
M  V30 44 C -0.770340 -2.334090 -1.952080 0
M  V30 45 H -0.576470 -3.042800 -1.151700 0
M  V30 46 H 0.184790 -1.961570 -2.318210 0
M  V30 47 H -1.303650 -2.860420 -2.755750 0
M  V30 48 C 0.451170 1.712730 -2.370970 0
M  V30 49 H 0.682670 0.716910 -2.740770 0
M  V30 50 H 1.303300 2.038780 -1.774290 0
M  V30 51 H 0.313370 2.403210 -3.214240 0
M  V30 52 O 1.144140 -0.328170 -0.299720 0
M  V30 53 O -2.428340 0.720430 0.558550 0
M  V30 54 C 2.148900 -0.694450 -1.030460 0
M  V30 55 O 2.147150 -1.023700 -2.203560 0 RAD=2 VAL=1
M  V30 56 C 3.485950 -0.630320 -0.248280 0
M  V30 57 F 4.475920 -1.246810 -0.881120 0
M  V30 58 F 3.826690 0.669000 -0.066320 0
M  V30 59 F 3.352130 -1.187350 0.984820 0
M  V30 60 H -2.762930 1.617070 0.689150 0
M  V30 END ATOM
M  V30 BEGIN BOND
M  V30 1 1 22 21
M  V30 2 1 26 24
M  V30 3 1 51 48
M  V30 4 1 23 21
M  V30 5 1 47 44
M  V30 6 1 49 48
M  V30 7 1 21 24
M  V30 8 1 21 4
M  V30 9 1 48 50
M  V30 10 1 48 5
M  V30 11 1 46 44
M  V30 12 1 24 25
M  V30 13 1 24 5
M  V30 14 1 55 54
M  V30 15 1 44 4
M  V30 16 1 44 45
M  V30 17 1 29 27
M  V30 18 1 20 18
M  V30 19 1 5 27
M  V30 20 1 4 18
M  V30 21 2 54 52
M  V30 22 1 54 56
M  V30 23 1 27 28
M  V30 24 1 27 30
M  V30 25 1 57 56
M  V30 26 1 18 19
M  V30 27 1 18 15
M  V30 28 1 56 58
M  V30 29 1 56 59
M  V30 30 1 31 30
M  V30 31 1 1 53
M  V30 32 1 30 32
M  V30 33 1 30 33
M  V30 34 1 17 15
M  V30 35 1 15 16
M  V30 36 1 15 12
M  V30 37 1 53 60
M  V30 38 1 43 40
M  V30 39 1 39 36
M  V30 40 1 42 40
M  V30 41 1 40 3
M  V30 42 1 40 41
M  V30 43 1 33 34
M  V30 44 1 33 2
M  V30 45 1 33 35
M  V30 46 1 3 12
M  V30 47 1 3 9
M  V30 48 1 12 14
M  V30 49 1 12 13
M  V30 50 1 2 36
M  V30 51 1 2 6
M  V30 52 1 36 38
M  V30 53 1 36 37
M  V30 54 1 8 6
M  V30 55 1 6 9
M  V30 56 1 6 7
M  V30 57 1 9 11
M  V30 58 1 9 10
M  V30 59 9 2 1
M  V30 60 9 3 1
M  V30 61 9 4 1
M  V30 62 9 5 1
M  V30 63 9 52 1
M  V30 END BOND
M  V30 END CTAB
M  END
