
     RDKit          3D

  0  0  0  0  0  0  0  0  0  0999 V3000
M  V30 BEGIN CTAB
M  V30 COUNTS 65 72 0 0 0
M  V30 BEGIN ATOM
M  V30 1 Fe 1.145730 0.645890 1.574880 0 VAL=5
M  V30 2 C -3.017960 2.462760 -1.773600 0
M  V30 3 C -3.062910 3.692330 -1.118260 0
M  V30 4 C -2.378230 -0.426850 -2.821560 0
M  V30 5 C -1.995670 1.594030 -1.389310 0
M  V30 6 C -2.118780 4.041020 -0.128000 0
M  V30 7 N -1.662030 0.305390 -1.794520 0
M  V30 8 C 4.664960 -2.876790 -1.097950 0
M  V30 9 C -1.059220 1.929060 -0.391470 0
M  V30 10 C -1.100410 3.170900 0.250850 0
M  V30 11 C -0.578610 -0.080530 -1.036090 0
M  V30 12 C 0.102430 -1.428440 -1.100410 0
M  V30 13 N -0.197440 0.860410 -0.198970 0
M  V30 14 C 1.853480 -2.415160 0.341260 0
M  V30 15 N 4.104010 -1.619280 -0.640230 0
M  V30 16 C 2.903040 -1.388650 -0.000310 0
M  V30 17 C 6.010550 -0.012750 -1.209710 0
M  V30 18 N 0.527940 -1.831410 0.229510 0
M  V30 19 C 4.769060 -0.395200 -0.695970 0
M  V30 20 N 2.758990 -0.124470 0.330250 0
M  V30 21 C 6.343510 1.336010 -1.084190 0
M  V30 22 C 3.903080 0.532090 -0.082690 0
M  V30 23 C -0.464650 -2.461390 1.117470 0
M  V30 24 C 5.477600 2.266130 -0.467670 0
M  V30 25 C 4.242110 1.882280 0.045210 0
M  V30 26 C -1.827710 -1.855560 0.967900 0
M  V30 27 N -2.193070 -0.730680 1.537900 0
M  V30 28 N -2.808540 -2.364760 0.112600 0
M  V30 29 C -2.825490 -3.598700 -0.647050 0
M  V30 30 C -3.452590 -0.447900 1.040950 0
M  V30 31 C -4.277950 0.661980 1.259290 0
M  V30 32 C -3.863750 -1.468530 0.151300 0
M  V30 33 C -5.495280 0.710730 0.587130 0
M  V30 34 C -5.091450 -1.437000 -0.515960 0
M  V30 35 C -5.899450 -0.324200 -0.282350 0
M  V30 36 H -3.750740 2.192890 -2.527810 0
M  V30 37 H -3.844670 4.400790 -1.378560 0
M  V30 38 H -2.190630 5.015880 0.346400 0
M  V30 39 H -0.341340 3.400430 0.992620 0
M  V30 40 H -1.924190 -1.407180 -2.968730 0
M  V30 41 H -3.422970 -0.559160 -2.522700 0
M  V30 42 H -2.340000 0.120090 -3.770220 0
M  V30 43 H -0.544690 -2.172500 -1.591880 0
M  V30 44 H 0.995180 -1.330960 -1.729240 0
M  V30 45 H 1.982080 -3.335080 -0.259710 0
M  V30 46 H 1.987250 -2.681570 1.395910 0
M  V30 47 H 3.888020 -3.641440 -1.135090 0
M  V30 48 H 5.077970 -2.748920 -2.103670 0
M  V30 49 H 5.463660 -3.216040 -0.428250 0
M  V30 50 H 6.687520 -0.721900 -1.676930 0
M  V30 51 H 7.300270 1.679070 -1.468290 0
M  V30 52 H 5.789840 3.303710 -0.390660 0
M  V30 53 H 3.543430 2.552990 0.539570 0
M  V30 54 H -0.114370 -2.234410 2.132340 0
M  V30 55 H -0.510760 -3.553980 0.961750 0
M  V30 56 H -1.893890 -4.143730 -0.495990 0
M  V30 57 H -3.659690 -4.233620 -0.327190 0
M  V30 58 H -2.939020 -3.389620 -1.717870 0
M  V30 59 H -5.403130 -2.232950 -1.186890 0
M  V30 60 H -6.860400 -0.251750 -0.784310 0
M  V30 61 H -6.148710 1.566990 0.726990 0
M  V30 62 H -3.950490 1.464080 1.912530 0
M  V30 63 O 1.095970 -0.714890 2.893740 0
M  V30 64 H 0.764330 -0.438090 3.760030 0
M  V30 65 F 1.504010 2.453960 1.672250 0
M  V30 END ATOM
M  V30 BEGIN BOND
M  V30 1 1 42 4
M  V30 2 1 40 4
M  V30 3 1 4 41
M  V30 4 1 4 7
M  V30 5 1 36 2
M  V30 6 1 48 8
M  V30 7 1 7 5
M  V30 8 1 7 11
M  V30 9 2 2 5
M  V30 10 1 2 3
M  V30 11 1 44 12
M  V30 12 1 58 29
M  V30 13 1 50 17
M  V30 14 1 43 12
M  V30 15 1 51 21
M  V30 16 1 5 9
M  V30 17 1 37 3
M  V30 18 1 17 21
M  V30 19 2 17 19
M  V30 20 1 59 34
M  V30 21 1 47 8
M  V30 22 2 3 6
M  V30 23 1 12 11
M  V30 24 1 12 18
M  V30 25 1 8 15
M  V30 26 1 8 49
M  V30 27 2 21 24
M  V30 28 2 11 13
M  V30 29 1 60 35
M  V30 30 1 19 15
M  V30 31 1 19 22
M  V30 32 1 29 56
M  V30 33 1 29 57
M  V30 34 1 29 28
M  V30 35 1 15 16
M  V30 36 2 34 35
M  V30 37 1 34 32
M  V30 38 1 24 52
M  V30 39 1 24 25
M  V30 40 1 9 13
M  V30 41 2 9 10
M  V30 42 1 35 33
M  V30 43 1 45 14
M  V30 44 1 6 10
M  V30 45 1 6 38
M  V30 46 2 22 25
M  V30 47 1 22 20
M  V30 48 2 16 20
M  V30 49 1 16 14
M  V30 50 1 25 53
M  V30 51 1 28 32
M  V30 52 1 28 26
M  V30 53 2 32 30
M  V30 54 1 18 14
M  V30 55 1 18 23
M  V30 56 1 10 39
M  V30 57 1 14 46
M  V30 58 1 33 61
M  V30 59 2 33 31
M  V30 60 1 55 23
M  V30 61 1 26 23
M  V30 62 2 26 27
M  V30 63 1 30 31
M  V30 64 1 30 27
M  V30 65 1 23 54
M  V30 66 1 31 62
M  V30 67 1 1 65
M  V30 68 1 1 63
M  V30 69 1 63 64
M  V30 70 9 13 1
M  V30 71 9 18 1
M  V30 72 9 20 1
M  V30 END BOND
M  V30 END CTAB
M  END
