
     RDKit          3D

  0  0  0  0  0  0  0  0  0  0999 V3000
M  V30 BEGIN CTAB
M  V30 COUNTS 65 73 0 0 0
M  V30 BEGIN ATOM
M  V30 1 Fe -0.040040 -0.551890 -0.972870 0 VAL=6
M  V30 2 C 0.275250 4.914130 0.760010 0
M  V30 3 C 0.294740 5.395540 -0.548920 0
M  V30 4 C 0.217660 3.166980 3.401670 0
M  V30 5 C 0.185120 3.528740 0.908610 0
M  V30 6 C 0.228980 4.529360 -1.661210 0
M  V30 7 N 0.136930 2.704380 2.029760 0
M  V30 8 C -4.447900 -1.618140 2.415490 0
M  V30 9 C 0.120900 2.658840 -0.199380 0
M  V30 10 C 0.141140 3.147850 -1.509470 0
M  V30 11 C 0.059850 1.406270 1.563340 0
M  V30 12 C -0.004260 0.209420 2.486140 0
M  V30 13 N 0.043000 1.350160 0.254250 0
M  V30 14 C -1.310840 -1.801770 1.900550 0
M  V30 15 N -3.707500 -1.070790 1.294190 0
M  V30 16 C -2.355400 -1.151420 1.032290 0
M  V30 17 C -5.609870 -0.113070 -0.119040 0
M  V30 18 N -0.045680 -1.074580 1.790090 0
M  V30 19 C -4.290980 -0.455360 0.188080 0
M  V30 20 N -2.048410 -0.629250 -0.132500 0
M  V30 21 C -5.816210 0.526190 -1.341220 0
M  V30 22 C -3.226580 -0.176150 -0.693580 0
M  V30 23 C 1.173980 -1.877110 1.890210 0
M  V30 24 C -4.751630 0.811020 -2.224210 0
M  V30 25 C -3.439120 0.465280 -1.917220 0
M  V30 26 C 2.250270 -1.291670 1.014440 0
M  V30 27 N 1.968470 -0.762470 -0.153420 0
M  V30 28 N 3.605390 -1.278240 1.273910 0
M  V30 29 C 4.319340 -1.855100 2.397530 0
M  V30 30 C 3.166840 -0.371940 -0.718440 0
M  V30 31 C 3.409090 0.254060 -1.944560 0
M  V30 32 C 4.217320 -0.699690 0.163270 0
M  V30 33 C 4.736700 0.532680 -2.254790 0
M  V30 34 C 5.551210 -0.425250 -0.147330 0
M  V30 35 C 5.787220 0.197940 -1.372440 0
M  V30 36 H 0.330790 5.585160 1.612230 0
M  V30 37 H 0.364480 6.467140 -0.715000 0
M  V30 38 H 0.248880 4.955600 -2.660340 0
M  V30 39 H 0.090810 2.444110 -2.337030 0
M  V30 40 H -0.040970 2.358100 4.087300 0
M  V30 41 H 1.227420 3.522860 3.639130 0
M  V30 42 H -0.489270 3.988600 3.556530 0
M  V30 43 H 0.861870 0.238210 3.165110 0
M  V30 44 H -0.891110 0.308270 3.130560 0
M  V30 45 H -1.655120 -1.895450 2.944250 0
M  V30 46 H -1.148100 -2.806600 1.493750 0
M  V30 47 H -3.772820 -1.816580 3.249380 0
M  V30 48 H -5.200610 -0.894150 2.742770 0
M  V30 49 H -4.950390 -2.551620 2.137190 0
M  V30 50 H -6.436290 -0.335310 0.549580 0
M  V30 51 H -6.826720 0.808920 -1.623040 0
M  V30 52 H -4.968090 1.308260 -3.165420 0
M  V30 53 H -2.589850 0.658480 -2.568480 0
M  V30 54 H 0.947000 -2.869780 1.484350 0
M  V30 55 H 1.519570 -1.991910 2.931390 0
M  V30 56 H 3.636590 -2.014510 3.233520 0
M  V30 57 H 4.774230 -2.814180 2.124390 0
M  V30 58 H 5.107850 -1.167660 2.719330 0
M  V30 59 H 6.366590 -0.685490 0.521130 0
M  V30 60 H 6.810130 0.428720 -1.656870 0
M  V30 61 H 4.976090 1.015710 -3.197830 0
M  V30 62 H 2.569380 0.489150 -2.594380 0
M  V30 63 O -0.022880 0.240340 -2.685650 0
M  V30 64 H -0.048600 -0.422480 -3.393130 0
M  V30 65 Br -0.130060 -3.257300 -1.141250 0
M  V30 END ATOM
M  V30 BEGIN BOND
M  V30 1 1 64 63
M  V30 2 1 61 33
M  V30 3 1 52 24
M  V30 4 1 63 1
M  V30 5 1 38 6
M  V30 6 1 62 31
M  V30 7 1 53 25
M  V30 8 1 39 10
M  V30 9 1 33 31
M  V30 10 2 33 35
M  V30 11 2 24 25
M  V30 12 1 24 21
M  V30 13 2 31 30
M  V30 14 1 25 22
M  V30 15 2 6 10
M  V30 16 1 6 3
M  V30 17 1 60 35
M  V30 18 1 51 21
M  V30 19 1 10 9
M  V30 20 1 35 34
M  V30 21 2 21 17
M  V30 22 1 65 1
M  V30 23 1 30 27
M  V30 24 1 30 32
M  V30 25 1 37 3
M  V30 26 1 22 20
M  V30 27 2 22 19
M  V30 28 2 3 2
M  V30 29 1 9 13
M  V30 30 2 9 5
M  V30 31 2 27 26
M  V30 32 2 34 32
M  V30 33 1 34 59
M  V30 34 2 20 16
M  V30 35 1 17 19
M  V30 36 1 17 50
M  V30 37 1 32 28
M  V30 38 1 19 15
M  V30 39 2 13 11
M  V30 40 1 2 5
M  V30 41 1 2 36
M  V30 42 1 5 7
M  V30 43 1 26 28
M  V30 44 1 26 23
M  V30 45 1 16 15
M  V30 46 1 16 14
M  V30 47 1 28 29
M  V30 48 1 15 8
M  V30 49 1 54 23
M  V30 50 1 46 14
M  V30 51 1 11 7
M  V30 52 1 11 12
M  V30 53 1 18 23
M  V30 54 1 18 14
M  V30 55 1 18 12
M  V30 56 1 23 55
M  V30 57 1 14 45
M  V30 58 1 7 4
M  V30 59 1 57 29
M  V30 60 1 49 8
M  V30 61 1 29 58
M  V30 62 1 29 56
M  V30 63 1 8 48
M  V30 64 1 8 47
M  V30 65 1 12 44
M  V30 66 1 12 43
M  V30 67 1 4 42
M  V30 68 1 4 41
M  V30 69 1 4 40
M  V30 70 9 13 1
M  V30 71 9 18 1
M  V30 72 9 20 1
M  V30 73 9 27 1
M  V30 END BOND
M  V30 END CTAB
M  END
