
     RDKit          3D

  0  0  0  0  0  0  0  0  0  0999 V3000
M  V30 BEGIN CTAB
M  V30 COUNTS 65 73 0 0 0
M  V30 BEGIN ATOM
M  V30 1 Fe -0.700380 -0.067740 -1.396200 0 VAL=6
M  V30 2 C 3.207350 1.929610 2.302650 0
M  V30 3 C 3.274370 3.229580 1.805960 0
M  V30 4 C 2.554970 -1.059460 2.942140 0
M  V30 5 C 2.091040 1.180880 1.927420 0
M  V30 6 C 2.266940 3.752350 0.968120 0
M  V30 7 N 1.719330 -0.131570 2.206490 0
M  V30 8 C -4.924700 -2.440100 1.315410 0
M  V30 9 C 1.079630 1.689200 1.084010 0
M  V30 10 C 1.160440 2.996740 0.591790 0
M  V30 11 C 0.534700 -0.350420 1.534820 0
M  V30 12 C -0.248280 -1.639380 1.521370 0
M  V30 13 N 0.128870 0.701880 0.859240 0
M  V30 14 C -2.010830 -2.488370 0.015830 0
M  V30 15 N -4.196850 -1.324750 0.740160 0
M  V30 16 C -2.945910 -1.312650 0.161600 0
M  V30 17 C -5.933190 0.534870 0.962740 0
M  V30 18 N -0.627450 -2.014450 0.152030 0
M  V30 19 C -4.716410 -0.039670 0.588540 0
M  V30 20 N -2.635520 -0.129560 -0.321880 0
M  V30 21 C -6.105370 1.881380 0.643920 0
M  V30 22 C -3.714320 0.697010 -0.077770 0
M  V30 23 C 0.382540 -2.817710 -0.556680 0
M  V30 24 C -5.106680 2.622510 -0.024840 0
M  V30 25 C -3.896080 2.045880 -0.397600 0
M  V30 26 C 1.610200 -1.969640 -0.764170 0
M  V30 27 N 1.515310 -0.764010 -1.282980 0
M  V30 28 N 2.892920 -2.254230 -0.335180 0
M  V30 29 C 3.425460 -3.496520 0.190800 0
M  V30 30 C 2.773290 -0.198340 -1.199550 0
M  V30 31 C 3.197380 1.088050 -1.547180 0
M  V30 32 C 3.661620 -1.124960 -0.611410 0
M  V30 33 C 4.527410 1.404550 -1.291860 0
M  V30 34 C 5.002670 -0.816990 -0.367770 0
M  V30 35 C 5.414700 0.468540 -0.717250 0
M  V30 36 H 3.989230 1.521510 2.936060 0
M  V30 37 H 4.126150 3.852150 2.065730 0
M  V30 38 H 2.366480 4.768420 0.596750 0
M  V30 39 H 0.403890 3.363560 -0.092090 0
M  V30 40 H 2.067190 -2.031730 3.016780 0
M  V30 41 H 3.513790 -1.179130 2.424870 0
M  V30 42 H 2.741400 -0.683740 3.954020 0
M  V30 43 H 0.295640 -2.453780 2.023680 0
M  V30 44 H -1.167330 -1.472880 2.093000 0
M  V30 45 H -2.257100 -3.300480 0.718880 0
M  V30 46 H -2.112910 -2.852050 -1.011620 0
M  V30 47 H -4.246740 -3.274480 1.500350 0
M  V30 48 H -5.370320 -2.135010 2.267630 0
M  V30 49 H -5.722640 -2.775300 0.642840 0
M  V30 50 H -6.709470 -0.031430 1.468970 0
M  V30 51 H -7.036790 2.371650 0.913500 0
M  V30 52 H -5.294050 3.667150 -0.256310 0
M  V30 53 H -3.111010 2.580640 -0.925310 0
M  V30 54 H -0.037200 -3.024760 -1.546540 0
M  V30 55 H 0.614660 -3.758110 -0.030760 0
M  V30 56 H 2.610280 -4.154240 0.494650 0
M  V30 57 H 4.034520 -4.012160 -0.560430 0
M  V30 58 H 4.050010 -3.288200 1.065660 0
M  V30 59 H 5.691450 -1.533690 0.070390 0
M  V30 60 H 6.446520 0.758230 -0.538660 0
M  V30 61 H 4.893340 2.398700 -1.530020 0
M  V30 62 H 2.484570 1.791840 -1.966130 0
M  V30 63 O -1.167710 -1.470470 -2.603860 0
M  V30 64 H -1.197880 -1.178220 -3.526290 0
M  V30 65 Cl -0.556940 2.141510 -2.309940 0
M  V30 END ATOM
M  V30 BEGIN BOND
M  V30 1 1 64 63
M  V30 2 1 63 1
M  V30 3 1 65 1
M  V30 4 1 62 31
M  V30 5 1 31 33
M  V30 6 2 31 30
M  V30 7 1 54 23
M  V30 8 1 61 33
M  V30 9 2 33 35
M  V30 10 1 27 30
M  V30 11 2 27 26
M  V30 12 1 30 32
M  V30 13 1 46 14
M  V30 14 1 53 25
M  V30 15 1 26 23
M  V30 16 1 26 28
M  V30 17 1 35 60
M  V30 18 1 35 34
M  V30 19 2 32 34
M  V30 20 1 32 28
M  V30 21 1 57 29
M  V30 22 1 23 55
M  V30 23 1 23 18
M  V30 24 1 25 22
M  V30 25 2 25 24
M  V30 26 1 34 59
M  V30 27 1 28 29
M  V30 28 1 20 22
M  V30 29 2 20 16
M  V30 30 1 52 24
M  V30 31 1 39 10
M  V30 32 2 22 19
M  V30 33 1 24 21
M  V30 34 1 14 18
M  V30 35 1 14 16
M  V30 36 1 14 45
M  V30 37 1 18 12
M  V30 38 1 16 15
M  V30 39 1 29 56
M  V30 40 1 29 58
M  V30 41 1 19 15
M  V30 42 1 19 17
M  V30 43 2 10 6
M  V30 44 1 10 9
M  V30 45 1 38 6
M  V30 46 1 49 8
M  V30 47 1 21 51
M  V30 48 2 21 17
M  V30 49 1 15 8
M  V30 50 1 13 9
M  V30 51 2 13 11
M  V30 52 1 17 50
M  V30 53 1 6 3
M  V30 54 2 9 5
M  V30 55 1 8 47
M  V30 56 1 8 48
M  V30 57 1 12 11
M  V30 58 1 12 43
M  V30 59 1 12 44
M  V30 60 1 11 7
M  V30 61 1 3 37
M  V30 62 2 3 2
M  V30 63 1 5 7
M  V30 64 1 5 2
M  V30 65 1 7 4
M  V30 66 1 2 36
M  V30 67 1 41 4
M  V30 68 1 4 40
M  V30 69 1 4 42
M  V30 70 9 13 1
M  V30 71 9 18 1
M  V30 72 9 20 1
M  V30 73 9 27 1
M  V30 END BOND
M  V30 END CTAB
M  END
