
     RDKit          3D

  0  0  0  0  0  0  0  0  0  0999 V3000
M  V30 BEGIN CTAB
M  V30 COUNTS 67 75 0 0 0
M  V30 BEGIN ATOM
M  V30 1 Fe 0.737430 0.061790 -1.270430 0 VAL=6
M  V30 2 C -3.267070 0.834460 2.691720 0
M  V30 3 C -3.409520 2.214820 2.565320 0
M  V30 4 C -2.403110 -2.167280 2.554730 0
M  V30 5 C -2.064150 0.292650 2.237230 0
M  V30 6 C -2.388070 3.015720 2.013670 0
M  V30 7 N -1.608930 -1.020750 2.162280 0
M  V30 8 C -3.259010 -3.772530 -0.680220 0
M  V30 9 C -1.033020 1.081190 1.680590 0
M  V30 10 C -1.189720 2.466780 1.569110 0
M  V30 11 C -0.359330 -0.963780 1.578920 0
M  V30 12 C 0.501570 -2.143750 1.213860 0
M  V30 13 N 0.013000 0.260890 1.280330 0
M  V30 14 C -0.230410 -2.817150 -1.050470 0
M  V30 15 N -2.765940 -2.414580 -0.809830 0
M  V30 16 C -1.480280 -1.973990 -1.039180 0
M  V30 17 C -4.951630 -1.117110 -0.608980 0
M  V30 18 N 0.798660 -2.158830 -0.230890 0
M  V30 19 C -3.580720 -1.282810 -0.819240 0
M  V30 20 N -1.421410 -0.667420 -1.193230 0
M  V30 21 C -5.426080 0.193700 -0.634080 0
M  V30 22 C -2.715320 -0.192560 -1.057240 0
M  V30 23 C 2.183570 -2.541070 -0.544320 0
M  V30 24 C -4.567050 1.288890 -0.865640 0
M  V30 25 C -3.204040 1.118180 -1.083910 0
M  V30 26 C 3.092720 -1.397330 -0.166090 0
M  V30 27 N 2.713630 -0.146680 -0.322780 0
M  V30 28 N 4.373750 -1.493250 0.327880 0
M  V30 29 C 5.169190 -2.681320 0.576980 0
M  V30 30 C 3.776030 0.643540 0.070240 0
M  V30 31 C 3.895300 2.036090 0.099000 0
M  V30 32 C 4.839830 -0.187840 0.479740 0
M  V30 33 C 5.105010 2.557840 0.547040 0
M  V30 34 C 6.056520 0.330330 0.928400 0
M  V30 35 C 6.165650 1.719990 0.954710 0
M  V30 36 H -4.059740 0.216170 3.102100 0
M  V30 37 H -4.333970 2.683210 2.891400 0
M  V30 38 H -2.545880 4.084950 1.911900 0
M  V30 39 H -0.419050 3.078230 1.117230 0
M  V30 40 H -1.883650 -3.092040 2.301640 0
M  V30 41 H -2.594020 -2.154700 3.633690 0
M  V30 42 H -3.361080 -2.143450 2.024020 0
M  V30 43 H 1.450290 -2.031220 1.746420 0
M  V30 44 H 0.060180 -3.097520 1.539480 0
M  V30 45 H -0.429860 -3.849310 -0.719770 0
M  V30 46 H 0.149280 -2.816900 -2.077270 0
M  V30 47 H -2.426280 -4.462530 -0.539860 0
M  V30 48 H -3.921700 -3.843400 0.188610 0
M  V30 49 H -3.818420 -4.071170 -1.573850 0
M  V30 50 H -5.616530 -1.958770 -0.437640 0
M  V30 51 H -6.484650 0.375370 -0.470580 0
M  V30 52 H -4.978570 2.293490 -0.866080 0
M  V30 53 H -2.537290 1.957950 -1.247370 0
M  V30 54 H 2.238970 -2.652470 -1.631750 0
M  V30 55 H 2.486210 -3.484740 -0.063240 0
M  V30 56 H 4.534190 -3.567930 0.557690 0
M  V30 57 H 5.952800 -2.791060 -0.181200 0
M  V30 58 H 5.638620 -2.608710 1.563200 0
M  V30 59 H 6.878620 -0.308590 1.237090 0
M  V30 60 H 7.094020 2.169740 1.295360 0
M  V30 61 H 5.241220 3.634740 0.582910 0
M  V30 62 H 3.065950 2.656270 -0.226790 0
M  V30 63 O 1.183930 -0.958030 -2.813460 0
M  V30 64 H 1.117240 -0.478180 -3.651370 0
M  V30 65 N 0.426720 2.069980 -1.455420 0
M  V30 66 C -0.102590 3.129590 -1.519140 0
M  V30 67 S -0.860840 4.575190 -1.558250 0
M  V30 END ATOM
M  V30 BEGIN BOND
M  V30 1 1 64 63
M  V30 2 1 63 1
M  V30 3 1 46 14
M  V30 4 1 54 23
M  V30 5 1 49 8
M  V30 6 2 67 66
M  V30 7 2 66 65
M  V30 8 1 65 1
M  V30 9 1 53 25
M  V30 10 1 20 22
M  V30 11 2 20 16
M  V30 12 1 25 22
M  V30 13 2 25 24
M  V30 14 2 22 19
M  V30 15 1 14 16
M  V30 16 1 14 45
M  V30 17 1 14 18
M  V30 18 1 16 15
M  V30 19 1 52 24
M  V30 20 1 24 21
M  V30 21 1 19 15
M  V30 22 1 19 17
M  V30 23 1 15 8
M  V30 24 1 8 47
M  V30 25 1 8 48
M  V30 26 2 21 17
M  V30 27 1 21 51
M  V30 28 1 17 50
M  V30 29 1 23 18
M  V30 30 1 23 26
M  V30 31 1 23 55
M  V30 32 2 27 26
M  V30 33 1 27 30
M  V30 34 1 18 12
M  V30 35 1 62 31
M  V30 36 1 57 29
M  V30 37 1 26 28
M  V30 38 2 30 31
M  V30 39 1 30 32
M  V30 40 1 31 33
M  V30 41 1 28 32
M  V30 42 1 28 29
M  V30 43 2 32 34
M  V30 44 1 33 61
M  V30 45 2 33 35
M  V30 46 1 56 29
M  V30 47 1 29 58
M  V30 48 1 34 35
M  V30 49 1 34 59
M  V30 50 1 35 60
M  V30 51 1 39 10
M  V30 52 1 12 44
M  V30 53 1 12 11
M  V30 54 1 12 43
M  V30 55 2 13 11
M  V30 56 1 13 9
M  V30 57 1 10 9
M  V30 58 2 10 6
M  V30 59 1 11 7
M  V30 60 2 9 5
M  V30 61 1 38 6
M  V30 62 1 6 3
M  V30 63 1 42 4
M  V30 64 1 7 5
M  V30 65 1 7 4
M  V30 66 1 5 2
M  V30 67 1 40 4
M  V30 68 1 4 41
M  V30 69 2 3 2
M  V30 70 1 3 37
M  V30 71 1 2 36
M  V30 72 9 13 1
M  V30 73 9 18 1
M  V30 74 9 20 1
M  V30 75 9 27 1
M  V30 END BOND
M  V30 END CTAB
M  END
