
     RDKit          3D

  0  0  0  0  0  0  0  0  0  0999 V3000
M  V30 BEGIN CTAB
M  V30 COUNTS 64 71 0 0 0
M  V30 BEGIN ATOM
M  V30 1 H 1.211990 5.639200 0.276600 0
M  V30 2 H 3.507210 4.619870 -0.046330 0
M  V30 3 H 2.519760 4.479550 -1.496310 0
M  V30 4 C 1.366190 4.557180 0.334120 0
M  V30 5 C 2.610060 4.144220 -0.454510 0
M  V30 6 H 1.495790 4.311240 1.397100 0
M  V30 7 H 0.004140 4.142310 -1.272290 0
M  V30 8 H -0.768460 4.182170 0.299330 0
M  V30 9 C 0.126550 3.844480 -0.225290 0
M  V30 10 H 3.658010 2.320390 -0.988720 0
M  V30 11 C 2.782610 2.619770 -0.403920 0
M  V30 12 H 2.969600 2.320950 0.633310 0
M  V30 13 H 1.376950 2.168020 -1.973280 0
M  V30 14 H -2.080560 3.223100 1.259780 0
M  V30 15 C 1.531120 1.893060 -0.926130 0
M  V30 16 C 0.273570 2.306660 -0.143030 0
M  V30 17 H -1.943070 3.074920 -1.719320 0
M  V30 18 H 0.374830 1.999010 0.902070 0
M  V30 19 H 4.398340 0.041680 -0.461930 0
M  V30 20 H -0.669120 2.257520 -2.682520 0
M  V30 21 H 5.398440 -0.784020 1.624310 0
M  V30 22 H 3.365140 0.539460 -2.311900 0
M  V30 23 C -1.464220 2.122460 -1.953520 0
M  V30 24 H -4.204210 2.796300 2.410860 0
M  V30 25 C -2.581550 2.282290 1.079690 0
M  V30 26 C 3.740020 -0.266760 0.340680 0
M  V30 27 C 4.317450 -0.736420 1.544590 0
M  V30 28 N -0.907710 1.517280 -0.687800 0
M  V30 29 N 1.690590 0.362100 -0.979520 0
M  V30 30 H 1.783630 0.250360 -3.081800 0
M  V30 31 C -3.817980 2.040210 1.735220 0
M  V30 32 C 2.420100 -0.002840 -2.236900 0
M  V30 33 C 2.367820 -0.182120 0.204870 0
M  V30 34 H -2.193890 1.434330 -2.372980 0
M  V30 35 C -2.057660 1.346690 0.213940 0
M  V30 36 H 3.967400 -1.460380 3.534430 0
M  V30 37 C 3.525010 -1.113650 2.605500 0
M  V30 38 C 1.537400 -0.624970 1.258130 0
M  V30 39 H 2.614630 -1.074860 -2.230960 0
M  V30 40 C 2.112410 -1.077500 2.482800 0
M  V30 41 C -4.544330 0.896170 1.492770 0
M  V30 42 Fe -0.224400 -0.391430 -0.994100 0 CHG=2 VAL=6
M  V30 43 N 0.183500 -0.655000 1.038080 0
M  V30 44 H -5.510200 0.739690 1.963170 0
M  V30 45 C -2.748360 0.123070 0.033510 0
M  V30 46 C 1.228350 -1.504020 3.504750 0
M  V30 47 H 1.631340 -1.843280 4.454790 0
M  V30 48 C -4.019530 -0.103290 0.630480 0
M  V30 49 C -0.608950 -1.087380 2.013640 0
M  V30 50 C -0.129430 -1.499470 3.271870 0
M  V30 51 N -2.114090 -0.858940 -0.683060 0
M  V30 52 H -1.669430 -1.123410 1.804450 0
M  V30 53 H -0.836030 -1.826890 4.026270 0
M  V30 54 C -4.660550 -1.336180 0.345850 0
M  V30 55 C -2.733440 -2.008770 -0.928760 0
M  V30 56 H -5.642640 -1.536750 0.764810 0
M  V30 57 H -2.180370 -2.744910 -1.500080 0
M  V30 58 C -4.030980 -2.272800 -0.450700 0
M  V30 59 H -4.501390 -3.220200 -0.689080 0
M  V30 60 O -0.401090 -0.167180 -2.741480 0
M  V30 61 H -0.383160 -1.029690 -3.196180 0
M  V30 62 N 0.357090 -2.175180 -1.214670 0
M  V30 63 C 0.812070 -3.274050 -1.194670 0
M  V30 64 S 1.422520 -4.764320 -1.181900 0
M  V30 END ATOM
M  V30 BEGIN BOND
M  V30 1 1 61 60
M  V30 2 1 30 32
M  V30 3 1 60 42
M  V30 4 1 20 23
M  V30 5 1 34 23
M  V30 6 1 22 32
M  V30 7 1 32 39
M  V30 8 1 32 29
M  V30 9 1 13 15
M  V30 10 1 23 17
M  V30 11 1 23 28
M  V30 12 1 57 55
M  V30 13 1 3 5
M  V30 14 1 7 9
M  V30 15 2 62 63
M  V30 16 1 62 42
M  V30 17 2 63 64
M  V30 18 1 10 11
M  V30 19 1 29 15
M  V30 20 1 29 33
M  V30 21 1 55 51
M  V30 22 2 55 58
M  V30 23 1 15 11
M  V30 24 1 15 16
M  V30 25 1 59 58
M  V30 26 1 28 16
M  V30 27 1 28 35
M  V30 28 2 51 45
M  V30 29 1 19 26
M  V30 30 1 5 11
M  V30 31 1 5 2
M  V30 32 1 5 4
M  V30 33 1 58 54
M  V30 34 1 11 12
M  V30 35 1 9 16
M  V30 36 1 9 8
M  V30 37 1 9 4
M  V30 38 1 16 18
M  V30 39 1 45 35
M  V30 40 1 45 48
M  V30 41 2 33 26
M  V30 42 1 33 38
M  V30 43 2 35 25
M  V30 44 1 1 4
M  V30 45 1 4 6
M  V30 46 1 26 27
M  V30 47 2 54 48
M  V30 48 1 54 56
M  V30 49 1 48 41
M  V30 50 2 43 38
M  V30 51 1 43 49
M  V30 52 1 25 14
M  V30 53 1 25 31
M  V30 54 1 38 40
M  V30 55 2 41 31
M  V30 56 1 41 44
M  V30 57 1 27 21
M  V30 58 2 27 37
M  V30 59 1 31 24
M  V30 60 1 52 49
M  V30 61 2 49 50
M  V30 62 1 40 37
M  V30 63 2 40 46
M  V30 64 1 37 36
M  V30 65 1 50 46
M  V30 66 1 50 53
M  V30 67 1 46 47
M  V30 68 9 28 42
M  V30 69 9 29 42
M  V30 70 9 43 42
M  V30 71 9 51 42
M  V30 END BOND
M  V30 END CTAB
M  END
