
     RDKit          3D

  0  0  0  0  0  0  0  0  0  0999 V3000
M  V30 BEGIN CTAB
M  V30 COUNTS 62 69 0 0 0
M  V30 BEGIN ATOM
M  V30 1 H -3.845480 -2.549470 -3.293710 0
M  V30 2 H 0.703340 -0.488950 -2.852370 0
M  V30 3 H 0.986080 1.259930 -3.083950 0
M  V30 4 H -1.447490 -2.143500 -2.646970 0
M  V30 5 H 5.490540 0.577440 -2.457200 0
M  V30 6 H 3.106620 1.025720 -2.854010 0
M  V30 7 C 0.520440 0.505650 -2.445830 0
M  V30 8 C -3.611720 -1.970480 -2.407150 0
M  V30 9 H -0.552470 0.690410 -2.411430 0
M  V30 10 C -2.267330 -1.732260 -2.067440 0
M  V30 11 C 4.766910 0.279520 -1.705680 0
M  V30 12 C 3.399770 0.533240 -1.934490 0
M  V30 13 H -5.653680 -1.696340 -1.790120 0
M  V30 14 H 0.496830 3.088230 -1.969770 0
M  V30 15 C -4.608070 -1.494400 -1.575220 0
M  V30 16 H 6.252380 -0.500370 -0.360560 0
M  V30 17 C 5.195320 -0.319630 -0.531890 0
M  V30 18 H 2.137070 3.034630 -1.312770 0
M  V30 19 C 2.452910 0.204590 -0.970550 0
M  V30 20 N 1.055470 0.525940 -1.061610 0
M  V30 21 N -1.916510 -1.018850 -0.998400 0
M  V30 22 C 1.076870 3.063640 -1.040310 0
M  V30 23 H 0.998200 5.207660 -0.835450 0
M  V30 24 C 4.251000 -0.729750 0.446780 0
M  V30 25 C 2.872260 -0.479980 0.210190 0
M  V30 26 Fe -0.009230 -1.181360 0.002120 0 CHG=2 VAL=6
M  V30 27 H -1.377790 1.722700 -0.670550 0
M  V30 28 C 0.728790 1.783530 -0.251840 0
M  V30 29 C -4.263420 -0.754570 -0.415840 0
M  V30 30 H -1.356750 4.368400 -0.756870 0
M  V30 31 C -2.882800 -0.506780 -0.186080 0
M  V30 32 C 0.746690 4.328060 -0.233990 0
M  V30 33 N 1.904370 -0.955710 1.037260 0
M  V30 34 C 4.591920 -1.428950 1.632230 0
M  V30 35 H 5.636230 -1.629330 1.854920 0
M  V30 36 H 1.375830 1.730370 0.627440 0
M  V30 37 C -0.729260 1.788250 0.207130 0
M  V30 38 C -0.735110 4.333970 0.147890 0
M  V30 39 H 1.368650 4.374170 0.670060 0
M  V30 40 H -6.263000 -0.486320 0.382730 0
M  V30 41 C -5.205940 -0.296700 0.543640 0
M  V30 42 C 2.248870 -1.645860 2.124580 0
M  V30 43 N -1.054830 0.546370 1.033030 0
M  V30 44 C 3.591340 -1.875400 2.477020 0
M  V30 45 C -2.461240 0.228050 0.958920 0
M  V30 46 H -0.982990 5.224140 0.735140 0
M  V30 47 C -1.071020 3.084080 0.973960 0
M  V30 48 H 1.426460 -2.049120 2.706110 0
M  V30 49 H 3.821400 -2.426850 3.381970 0
M  V30 50 H -2.131450 3.064420 1.245580 0
M  V30 51 C -4.775450 0.356480 1.684050 0
M  V30 52 H -0.491640 3.120430 1.903500 0
M  V30 53 C -3.404720 0.615430 1.900160 0
M  V30 54 H 0.548290 0.737260 2.388230 0
M  V30 55 C -0.523340 0.546710 2.419340 0
M  V30 56 H -5.496240 0.692950 2.421880 0
M  V30 57 H -0.702590 -0.444440 2.834810 0
M  V30 58 H -3.110510 1.152520 2.794040 0
M  V30 59 H -0.996860 1.305280 3.046210 0
M  V30 60 O 0.682470 -2.261560 -1.273570 0
M  V30 61 H 0.710810 -3.210020 -1.046960 0
M  V30 62 F -0.579000 -2.236300 1.294880 0
M  V30 END ATOM
M  V30 BEGIN BOND
M  V30 1 1 1 8
M  V30 2 1 3 7
M  V30 3 1 6 12
M  V30 4 1 2 7
M  V30 5 1 4 10
M  V30 6 1 5 11
M  V30 7 1 7 9
M  V30 8 1 7 20
M  V30 9 2 8 10
M  V30 10 1 8 15
M  V30 11 1 10 21
M  V30 12 1 14 22
M  V30 13 2 12 11
M  V30 14 1 12 19
M  V30 15 1 13 15
M  V30 16 1 11 17
M  V30 17 2 15 29
M  V30 18 1 18 22
M  V30 19 1 60 61
M  V30 20 1 60 26
M  V30 21 1 20 19
M  V30 22 1 20 28
M  V30 23 1 22 28
M  V30 24 1 22 32
M  V30 25 2 21 31
M  V30 26 2 19 25
M  V30 27 1 23 32
M  V30 28 1 30 38
M  V30 29 1 27 37
M  V30 30 1 17 16
M  V30 31 2 17 24
M  V30 32 1 29 31
M  V30 33 1 29 41
M  V30 34 1 28 37
M  V30 35 1 28 36
M  V30 36 1 32 38
M  V30 37 1 32 39
M  V30 38 1 31 45
M  V30 39 1 26 62
M  V30 40 1 38 46
M  V30 41 1 38 47
M  V30 42 1 37 47
M  V30 43 1 37 43
M  V30 44 1 25 24
M  V30 45 1 25 33
M  V30 46 1 40 41
M  V30 47 1 24 34
M  V30 48 2 41 51
M  V30 49 1 45 43
M  V30 50 2 45 53
M  V30 51 1 47 50
M  V30 52 1 47 52
M  V30 53 1 43 55
M  V30 54 2 33 42
M  V30 55 1 34 35
M  V30 56 2 34 44
M  V30 57 1 51 53
M  V30 58 1 51 56
M  V30 59 1 53 58
M  V30 60 1 42 44
M  V30 61 1 42 48
M  V30 62 1 54 55
M  V30 63 1 55 57
M  V30 64 1 55 59
M  V30 65 1 44 49
M  V30 66 9 20 26
M  V30 67 9 21 26
M  V30 68 9 33 26
M  V30 69 9 43 26
M  V30 END BOND
M  V30 END CTAB
M  END
