
     RDKit          3D

  0  0  0  0  0  0  0  0  0  0999 V3000
M  V30 BEGIN CTAB
M  V30 COUNTS 62 68 0 0 0
M  V30 BEGIN ATOM
M  V30 1 H -3.566040 -3.030780 3.229040 0
M  V30 2 H -5.177350 -2.202230 1.465210 0
M  V30 3 H -3.961980 -3.261380 0.759920 0
M  V30 4 C -3.288200 -2.225040 2.541450 0
M  V30 5 C -4.107650 -2.290780 1.252640 0
M  V30 6 H -3.480730 -1.278700 3.064580 0
M  V30 7 H -1.651260 -3.352290 1.761330 0
M  V30 8 H -1.176770 -2.313480 3.099710 0
M  V30 9 C -1.803910 -2.362220 2.201690 0
M  V30 10 H -4.299960 -1.156980 -0.582750 0
M  V30 11 C -3.688510 -1.144720 0.324060 0
M  V30 12 H -3.891080 -0.205200 0.847130 0
M  V30 13 H -2.024450 -2.084750 -0.683890 0
M  V30 14 H 0.179140 -0.422130 3.318390 0
M  V30 15 C -2.199110 -1.193050 -0.075850 0
M  V30 16 C -1.307470 -1.277090 1.203720 0
M  V30 17 H 0.590750 -3.541080 1.292050 0
M  V30 18 H -1.330010 -0.292820 1.680390 0
M  V30 19 H -4.104760 1.399520 -0.624560 0
M  V30 20 H -0.372600 -3.332470 -0.201760 0
M  V30 21 H -4.327840 3.631720 0.359100 0
M  V30 22 H -3.562570 0.032820 -2.233760 0
M  V30 23 C 0.438830 -2.929510 0.396120 0
M  V30 24 H 2.232140 0.348750 4.430700 0
M  V30 25 C 1.098780 -0.360650 2.748160 0
M  V30 26 C -3.206660 1.904660 -0.292880 0
M  V30 27 C -3.337550 3.199930 0.258790 0
M  V30 28 N 0.108170 -1.547660 0.845150 0
M  V30 29 N -1.782480 -0.040230 -0.997480 0
M  V30 30 H -2.311160 -1.128010 -2.743880 0
M  V30 31 C 2.274710 0.055100 3.386950 0
M  V30 32 C -2.488760 -0.138990 -2.323890 0
M  V30 33 C -1.968810 1.297320 -0.424750 0
M  V30 34 H 1.341700 -2.927750 -0.206670 0
M  V30 35 C 1.148860 -0.845910 1.428860 0
M  V30 36 H -2.318490 4.909860 1.061270 0
M  V30 37 C -2.224800 3.910620 0.646770 0
M  V30 38 C -0.806790 2.036330 -0.077370 0 RAD=2 VAL=3
M  V30 39 H -2.061730 0.614760 -2.987480 0
M  V30 40 C -0.933750 3.355810 0.461120 0
M  V30 41 C 3.499160 0.026840 2.726160 0
M  V30 42 Fe 0.368830 -0.217790 -1.649490 0 CHG=2 VAL=5
M  V30 43 N 0.422280 1.494030 -0.337870 0 RAD=2 VAL=2
M  V30 44 H 4.408910 0.307730 3.249120 0
M  V30 45 C 2.374530 -0.689090 0.678160 0
M  V30 46 C 0.254640 4.076050 0.734440 0
M  V30 47 H 0.186620 5.078450 1.147920 0
M  V30 48 C 3.568600 -0.321120 1.346440 0
M  V30 49 C 1.511610 2.226990 -0.122070 0
M  V30 50 C 1.478830 3.516110 0.434860 0
M  V30 51 N 2.306500 -0.762980 -0.677810 0
M  V30 52 H 2.455890 1.785640 -0.417900 0
M  V30 53 H 2.405040 4.056950 0.593800 0
M  V30 54 C 4.752180 -0.227320 0.568530 0
M  V30 55 C 3.428730 -0.655890 -1.391660 0
M  V30 56 H 5.693110 0.026490 1.048780 0
M  V30 57 H 3.312600 -0.714530 -2.469130 0
M  V30 58 C 4.686840 -0.433240 -0.797340 0
M  V30 59 H 5.571770 -0.372980 -1.421460 0
M  V30 60 O 0.739860 0.868480 -3.033980 0
M  V30 61 H 0.749000 0.519100 -3.944070 0
M  V30 62 Cl 0.157420 -2.202860 -2.679720 0
M  V30 END ATOM
M  V30 BEGIN BOND
M  V30 1 1 61 60
M  V30 2 1 60 42
M  V30 3 1 39 32
M  V30 4 1 30 32
M  V30 5 1 62 42
M  V30 6 1 57 55
M  V30 7 1 32 22
M  V30 8 1 32 29
M  V30 9 1 59 58
M  V30 10 2 55 58
M  V30 11 1 55 51
M  V30 12 1 29 33
M  V30 13 1 29 15
M  V30 14 1 58 54
M  V30 15 1 13 15
M  V30 16 2 51 45
M  V30 17 1 19 26
M  V30 18 1 10 11
M  V30 19 2 33 26
M  V30 20 1 33 38
M  V30 21 1 52 49
M  V30 22 1 43 49
M  V30 23 1 43 38
M  V30 24 1 26 27
M  V30 25 1 34 23
M  V30 26 1 20 23
M  V30 27 2 49 50
M  V30 28 1 38 40
M  V30 29 1 15 11
M  V30 30 1 15 16
M  V30 31 1 27 21
M  V30 32 2 27 37
M  V30 33 1 11 12
M  V30 34 1 11 5
M  V30 35 1 23 28
M  V30 36 1 23 17
M  V30 37 1 50 53
M  V30 38 1 50 46
M  V30 39 1 40 37
M  V30 40 2 40 46
M  V30 41 1 54 56
M  V30 42 2 54 48
M  V30 43 1 37 36
M  V30 44 1 45 48
M  V30 45 1 45 35
M  V30 46 1 46 47
M  V30 47 1 3 5
M  V30 48 1 28 16
M  V30 49 1 28 35
M  V30 50 1 16 18
M  V30 51 1 16 9
M  V30 52 1 5 2
M  V30 53 1 5 4
M  V30 54 1 48 41
M  V30 55 2 35 25
M  V30 56 1 7 9
M  V30 57 1 9 4
M  V30 58 1 9 8
M  V30 59 1 4 6
M  V30 60 1 4 1
M  V30 61 1 41 44
M  V30 62 2 41 31
M  V30 63 1 25 14
M  V30 64 1 25 31
M  V30 65 1 31 24
M  V30 66 9 28 42
M  V30 67 9 29 42
M  V30 68 9 51 42
M  V30 END BOND
M  V30 END CTAB
M  END
