
     RDKit          3D

  0  0  0  0  0  0  0  0  0  0999 V3000
M  V30 BEGIN CTAB
M  V30 COUNTS 67 74 0 0 0
M  V30 BEGIN ATOM
M  V30 1 H 2.166210 -5.005490 -2.210110 0
M  V30 2 H 2.521970 -5.269860 -0.481950 0
M  V30 3 C 2.547540 -4.537840 -1.296240 0
M  V30 4 H 3.582270 -4.220260 -1.462190 0
M  V30 5 H -3.403330 -3.495060 -2.649820 0
M  V30 6 H 0.736940 -0.774150 -2.592450 0
M  V30 7 H 0.836170 0.896510 -3.188930 0
M  V30 8 H -1.126130 -2.669380 -2.020990 0
M  V30 9 H 5.330740 1.251800 -2.307560 0
M  V30 10 H 2.923870 1.266360 -2.815830 0
M  V30 11 C 1.727200 -3.386930 -0.946220 0
M  V30 12 C 0.425100 0.254310 -2.407080 0
M  V30 13 C -3.297140 -2.715360 -1.903830 0
M  V30 14 H -0.662420 0.303330 -2.450590 0
M  V30 15 C -2.014750 -2.244630 -1.567070 0
M  V30 16 C 4.631380 0.941860 -1.537920 0
M  V30 17 C 3.244270 0.945360 -1.831310 0
M  V30 18 N 1.073860 -2.472090 -0.667310 0
M  V30 19 H -5.394090 -2.555650 -1.462980 0
M  V30 20 H 0.026610 2.841750 -2.549820 0
M  V30 21 C -4.393370 -2.190610 -1.249140 0
M  V30 22 H 6.150880 0.604310 -0.060280 0
M  V30 23 C 5.090130 0.580120 -0.291130 0
M  V30 24 H 1.638060 3.158670 -1.900920 0
M  V30 25 C 2.319910 0.566580 -0.877680 0
M  V30 26 N 0.873760 0.632970 -1.043180 0
M  V30 27 N -1.810850 -1.281620 -0.672300 0
M  V30 28 C 0.576870 3.103160 -1.638170 0
M  V30 29 H 0.223830 5.212320 -1.935960 0
M  V30 30 C 4.171560 0.159570 0.706250 0
M  V30 31 C 2.782300 0.129200 0.392370 0
M  V30 32 Fe -0.014850 -0.862940 0.445060 0 CHG=2 VAL=6
M  V30 33 H -1.695780 1.594040 -0.978250 0
M  V30 34 C 0.376110 2.000200 -0.582350 0
M  V30 35 C -4.218030 -1.168420 -0.282560 0
M  V30 36 H -2.008040 4.118420 -1.658100 0
M  V30 37 C -2.889420 -0.708970 -0.045600 0
M  V30 38 C 0.069550 4.466920 -1.149420 0
M  V30 39 N 1.861380 -0.346170 1.287090 0
M  V30 40 C 4.554920 -0.254050 2.007870 0
M  V30 41 H 5.604830 -0.227170 2.286670 0
M  V30 42 H 0.991410 2.240880 0.290460 0
M  V30 43 C -1.091040 1.929870 -0.130480 0
M  V30 44 C -1.411190 4.372460 -0.771360 0
M  V30 45 H 0.655900 4.797430 -0.281090 0
M  V30 46 H -6.297910 -0.950230 0.289330 0
M  V30 47 C -5.285140 -0.598370 0.460670 0
M  V30 48 O -0.477140 -1.829210 1.914850 0
M  V30 49 C 2.255230 -0.750790 2.493170 0
M  V30 50 N -1.287430 0.855840 0.935060 0
M  V30 51 C 3.600100 -0.694010 2.903380 0
M  V30 52 C -2.652700 0.347500 0.875320 0
M  V30 53 H -1.782600 5.335220 -0.406400 0
M  V30 54 C -1.607720 3.309340 0.317880 0
M  V30 55 H 1.475240 -1.154140 3.129940 0
M  V30 56 H 3.868320 -1.018170 3.902770 0
M  V30 57 H -2.664670 3.224920 0.591110 0
M  V30 58 C -5.027390 0.379740 1.394290 0
M  V30 59 H -1.061940 3.632360 1.212010 0
M  V30 60 C -3.710400 0.863870 1.596050 0
M  V30 61 H 0.180840 1.566080 2.274190 0
M  V30 62 C -0.864000 1.256100 2.306080 0
M  V30 63 H -5.837980 0.807420 1.975050 0
M  V30 64 H -0.954120 0.380660 2.948770 0
M  V30 65 H -3.553140 1.656610 2.318200 0
M  V30 66 H -1.462560 2.075630 2.707790 0
M  V30 67 H -1.240620 -2.414560 2.047610 0
M  V30 END ATOM
M  V30 BEGIN BOND
M  V30 1 1 7 12
M  V30 2 1 10 17
M  V30 3 1 5 13
M  V30 4 1 6 12
M  V30 5 1 20 28
M  V30 6 1 14 12
M  V30 7 1 12 26
M  V30 8 1 9 16
M  V30 9 1 1 3
M  V30 10 1 8 15
M  V30 11 1 29 38
M  V30 12 2 13 15
M  V30 13 1 13 21
M  V30 14 1 24 28
M  V30 15 2 17 16
M  V30 16 1 17 25
M  V30 17 1 36 44
M  V30 18 1 28 38
M  V30 19 1 28 34
M  V30 20 1 15 27
M  V30 21 1 16 23
M  V30 22 1 19 21
M  V30 23 1 4 3
M  V30 24 1 3 11
M  V30 25 1 3 2
M  V30 26 2 21 35
M  V30 27 1 38 44
M  V30 28 1 38 45
M  V30 29 1 26 25
M  V30 30 1 26 34
M  V30 31 1 33 43
M  V30 32 3 11 18
M  V30 33 2 25 31
M  V30 34 1 44 53
M  V30 35 1 44 54
M  V30 36 2 27 37
M  V30 37 1 34 43
M  V30 38 1 34 42
M  V30 39 1 23 22
M  V30 40 2 23 30
M  V30 41 1 35 37
M  V30 42 1 35 47
M  V30 43 1 43 54
M  V30 44 1 43 50
M  V30 45 1 37 52
M  V30 46 1 46 47
M  V30 47 1 54 57
M  V30 48 1 54 59
M  V30 49 1 31 30
M  V30 50 1 31 39
M  V30 51 1 32 48
M  V30 52 2 47 58
M  V30 53 1 30 40
M  V30 54 1 52 50
M  V30 55 2 52 60
M  V30 56 1 50 62
M  V30 57 2 39 49
M  V30 58 1 58 60
M  V30 59 1 58 63
M  V30 60 1 60 65
M  V30 61 1 48 67
M  V30 62 1 40 41
M  V30 63 2 40 51
M  V30 64 1 61 62
M  V30 65 1 62 66
M  V30 66 1 62 64
M  V30 67 1 49 51
M  V30 68 1 49 55
M  V30 69 1 51 56
M  V30 70 9 18 32
M  V30 71 9 26 32
M  V30 72 9 27 32
M  V30 73 9 39 32
M  V30 74 9 50 32
M  V30 END BOND
M  V30 END CTAB
M  END
