
     RDKit          3D

  0  0  0  0  0  0  0  0  0  0999 V3000
M  V30 BEGIN CTAB
M  V30 COUNTS 62 69 0 0 0
M  V30 BEGIN ATOM
M  V30 1 H -2.094850 4.568680 -2.034390 0
M  V30 2 H -4.194910 3.408270 -1.232720 0
M  V30 3 H -3.212780 3.974650 0.112940 0
M  V30 4 C -2.070160 3.535420 -1.674590 0
M  V30 5 C -3.236960 3.263850 -0.723790 0
M  V30 6 H -2.150280 2.890290 -2.560200 0
M  V30 7 H -0.640520 3.990680 -0.130960 0
M  V30 8 H 0.089230 3.505120 -1.656950 0
M  V30 9 C -0.727860 3.288630 -0.967350 0
M  V30 10 H -3.978040 1.629760 0.504740 0
M  V30 11 C -3.159770 1.825090 -0.195920 0
M  V30 12 H -3.280110 1.129390 -1.033820 0
M  V30 13 H -1.728090 2.239410 1.351190 0
M  V30 14 H 1.867480 2.898230 -1.840700 0
M  V30 15 C -1.814520 1.559910 0.499460 0
M  V30 16 C -0.622670 1.838110 -0.446850 0
M  V30 17 H 1.354610 3.475470 0.754450 0
M  V30 18 H -0.653350 1.146950 -1.291970 0
M  V30 19 H -4.363490 -0.804140 1.159960 0
M  V30 20 H 0.215740 2.792970 1.956010 0
M  V30 21 H -5.290350 -2.482070 -0.375710 0
M  V30 22 H -3.358940 0.527940 2.502860 0
M  V30 23 C 1.051270 2.576750 1.294230 0
M  V30 24 H 4.056230 2.402110 -2.828790 0
M  V30 25 C 2.406970 2.031680 -1.484390 0
M  V30 26 C -3.706400 -1.250870 0.424160 0
M  V30 27 C -4.243460 -2.212300 -0.466340 0
M  V30 28 N 0.670780 1.507470 0.300630 0
M  V30 29 N -1.742290 0.160290 1.145070 0
M  V30 30 H -1.733680 0.894640 3.123740 0
M  V30 31 C 3.682730 1.756710 -2.040650 0
M  V30 32 C -2.318020 0.197610 2.526690 0
M  V30 33 C -2.379070 -0.883220 0.333120 0
M  V30 34 H 1.882420 2.211430 1.893270 0
M  V30 35 C 1.889670 1.231580 -0.486140 0
M  V30 36 H -3.876850 -3.514870 -2.132250 0
M  V30 37 C -3.460220 -2.788280 -1.441530 0
M  V30 38 C -1.547430 -1.507800 -0.615160 0
M  V30 39 H -2.247810 -0.805270 2.948020 0
M  V30 40 C -2.084700 -2.452140 -1.536530 0
M  V30 41 C 4.457730 0.718310 -1.573170 0
M  V30 42 Fe 0.243430 -0.295950 1.221080 0 CHG=2 VAL=6
M  V30 43 N -0.209940 -1.201280 -0.587950 0
M  V30 44 H 5.446180 0.534200 -1.982860 0
M  V30 45 C 2.663040 0.135220 -0.026670 0
M  V30 46 C -1.196660 -3.021560 -2.480590 0
M  V30 47 H -1.570870 -3.740840 -3.203580 0
M  V30 48 C 3.960750 -0.128050 -0.547580 0
M  V30 49 C 0.596260 -1.765860 -1.485760 0
M  V30 50 C 0.136360 -2.664440 -2.463550 0
M  V30 51 N 2.103020 -0.711990 0.891800 0
M  V30 52 H 1.646250 -1.514370 -1.436000 0
M  V30 53 H 0.844250 -3.081900 -3.170720 0
M  V30 54 C 4.660580 -1.245430 -0.018930 0
M  V30 55 C 2.756860 -1.769070 1.357590 0
M  V30 56 H 5.661160 -1.464090 -0.381510 0
M  V30 57 H 2.209820 -2.399180 2.050190 0
M  V30 58 C 4.069700 -2.052590 0.934540 0
M  V30 59 H 4.585240 -2.913180 1.345890 0
M  V30 60 O 0.515690 0.445960 2.771260 0
M  V30 61 H 0.474300 -0.257380 3.451630 0
M  V30 62 F -0.083090 -1.855640 1.978620 0
M  V30 END ATOM
M  V30 BEGIN BOND
M  V30 1 1 47 46
M  V30 2 1 53 50
M  V30 3 1 24 31
M  V30 4 1 6 4
M  V30 5 2 46 50
M  V30 6 1 46 40
M  V30 7 1 50 49
M  V30 8 1 36 37
M  V30 9 1 31 41
M  V30 10 2 31 25
M  V30 11 1 1 4
M  V30 12 1 44 41
M  V30 13 1 14 25
M  V30 14 1 4 9
M  V30 15 1 4 5
M  V30 16 1 8 9
M  V30 17 2 41 48
M  V30 18 2 40 37
M  V30 19 1 40 38
M  V30 20 1 49 52
M  V30 21 2 49 43
M  V30 22 1 25 35
M  V30 23 1 37 27
M  V30 24 1 18 16
M  V30 25 1 2 5
M  V30 26 1 12 11
M  V30 27 1 9 16
M  V30 28 1 9 7
M  V30 29 1 5 11
M  V30 30 1 5 3
M  V30 31 1 38 43
M  V30 32 2 38 33
M  V30 33 1 48 45
M  V30 34 1 48 54
M  V30 35 2 35 45
M  V30 36 1 35 28
M  V30 37 1 27 21
M  V30 38 2 27 26
M  V30 39 1 16 28
M  V30 40 1 16 15
M  V30 41 1 56 54
M  V30 42 1 11 15
M  V30 43 1 11 10
M  V30 44 1 45 51
M  V30 45 2 54 58
M  V30 46 1 28 23
M  V30 47 1 33 26
M  V30 48 1 33 29
M  V30 49 1 26 19
M  V30 50 1 15 29
M  V30 51 1 15 13
M  V30 52 1 17 23
M  V30 53 2 51 55
M  V30 54 1 58 59
M  V30 55 1 58 55
M  V30 56 1 29 32
M  V30 57 1 42 62
M  V30 58 1 42 60
M  V30 59 1 23 34
M  V30 60 1 23 20
M  V30 61 1 55 57
M  V30 62 1 22 32
M  V30 63 1 32 39
M  V30 64 1 32 30
M  V30 65 1 60 61
M  V30 66 9 28 42
M  V30 67 9 29 42
M  V30 68 9 43 42
M  V30 69 9 51 42
M  V30 END BOND
M  V30 END CTAB
M  END
