
     RDKit          3D

  0  0  0  0  0  0  0  0  0  0999 V3000
M  V30 BEGIN CTAB
M  V30 COUNTS 64 70 0 0 0
M  V30 BEGIN ATOM
M  V30 1 H 2.589000 -4.054300 -2.744700 0
M  V30 2 H 4.532100 -3.170200 -1.382700 0
M  V30 3 H 3.327900 -3.953000 -0.366000 0
M  V30 4 C 2.512500 -3.114700 -2.188800 0
M  V30 5 C 3.501600 -3.090400 -1.023000 0
M  V30 6 H 2.743500 -2.307200 -2.896900 0
M  V30 7 H 0.873400 -3.806700 -0.993000 0
M  V30 8 H 0.365100 -3.035200 -2.483500 0
M  V30 9 C 1.078800 -2.963400 -1.661100 0
M  V30 10 H 4.044000 -1.769100 0.610900 0
M  V30 11 C 3.349100 -1.782600 -0.234200 0
M  V30 12 H 3.617900 -0.946400 -0.888200 0
M  V30 13 H 1.666900 -2.396900 0.967700 0
M  V30 14 H -1.026700 -1.867800 -3.071800 0
M  V30 15 C 1.907700 -1.588000 0.272300 0 CFG=2
M  V30 16 C 0.894300 -1.635900 -0.888000 0 CFG=2
M  V30 17 H -1.253600 -3.419000 -0.493100 0
M  V30 18 H 1.063900 -0.789300 -1.559200 0
M  V30 19 H 4.354700 0.566800 1.395700 0
M  V30 20 H -0.365400 -3.092900 1.028500 0
M  V30 21 H 5.368500 2.499500 0.273600 0
M  V30 22 H 3.273500 -0.936700 2.495300 0
M  V30 23 C -1.059300 -2.688600 0.294400 0
M  V30 24 H -3.053200 -1.132800 -4.248300 0
M  V30 25 C -1.744700 -1.264200 -2.533800 0
M  V30 26 C 3.733000 1.171700 0.747700 0
M  V30 27 C 4.320100 2.283000 0.097900 0
M  V30 28 N -0.500300 -1.427700 -0.314100 0
M  V30 29 N 1.740200 -0.316300 1.130500 0
M  V30 30 H 1.609100 -1.324600 2.985200 0
M  V30 31 C -2.922400 -0.848100 -3.209500 0
M  V30 32 C 2.243500 -0.575800 2.517100 0
M  V30 33 C 2.403200 0.856800 0.541600 0
M  V30 34 H -2.001800 -2.452200 0.785100 0
M  V30 35 C -1.547300 -0.923100 -1.213300 0
M  V30 36 H 4.028100 3.925000 -1.252900 0
M  V30 37 C 3.578100 3.075200 -0.748900 0
M  V30 38 C 1.612800 1.688500 -0.278000 0
M  V30 39 H 2.194500 0.356400 3.079500 0
M  V30 40 C 2.199900 2.804000 -0.945600 0
M  V30 41 C -3.905100 -0.133400 -2.561300 0 CHG=1 VAL=3
M  V30 42 Fe -0.276810 0.119260 1.124880 0 CHG=1 RAD=2 VAL=5
M  V30 43 N 0.269000 1.427700 -0.357500 0
M  V30 44 H -4.819300 0.146700 -3.075600 0
M  V30 45 C -2.509500 -0.112100 -0.562300 0
M  V30 46 C 1.352900 3.611900 -1.742300 0
M  V30 47 H 1.768700 4.465000 -2.271000 0
M  V30 48 C -3.716600 0.266000 -1.211000 0 RAD=2 VAL=3
M  V30 49 C -0.499900 2.231900 -1.087400 0
M  V30 50 C 0.006800 3.321200 -1.816800 0
M  V30 51 N -2.197000 0.362500 0.686400 0
M  V30 52 H -1.560400 2.024800 -1.097800 0
M  V30 53 H -0.673600 3.928300 -2.403200 0
M  V30 54 C -4.631000 1.062100 -0.472400 0
M  V30 55 C -3.054700 1.135900 1.344900 0
M  V30 56 H -5.574500 1.351500 -0.926700 0
M  V30 57 H -2.723600 1.517600 2.303300 0
M  V30 58 C -4.308700 1.479700 0.803600 0
M  V30 59 H -4.984000 2.096500 1.386000 0
M  V30 60 O -0.125100 1.532400 2.166800 0 RAD=2 VAL=1
M  V30 61 H -0.136800 1.285400 3.110700 0
M  V30 62 N -0.577000 -1.051200 2.540900 0
M  V30 63 N -1.706200 -1.172600 3.026900 0 CHG=1 VAL=4
M  V30 64 N -2.717300 -1.347200 3.529900 0 CHG=-1 VAL=2
M  V30 END ATOM
M  V30 BEGIN BOND
M  V30 1 1 24 31
M  V30 2 1 31 41
M  V30 3 2 31 25
M  V30 4 1 44 41
M  V30 5 1 14 25
M  V30 6 1 6 4
M  V30 7 1 1 4
M  V30 8 1 41 48
M  V30 9 1 25 35
M  V30 10 1 8 9
M  V30 11 1 53 50
M  V30 12 1 47 46
M  V30 13 1 4 9
M  V30 14 1 4 5
M  V30 15 2 50 46
M  V30 16 1 50 49
M  V30 17 1 46 40
M  V30 18 1 9 7
M  V30 19 1 9 16
M  V30 20 1 16 18 CFG=3
M  V30 21 1 2 5
M  V30 22 1 36 37
M  V30 23 2 35 45
M  V30 24 1 35 28
M  V30 25 1 48 45
M  V30 26 1 48 54
M  V30 27 1 52 49
M  V30 28 2 49 43
M  V30 29 1 5 3
M  V30 30 1 5 11
M  V30 31 2 40 37
M  V30 32 1 40 38
M  V30 33 1 56 54
M  V30 34 1 12 11
M  V30 35 1 16 28
M  V30 36 1 16 15
M  V30 37 1 37 27
M  V30 38 1 45 51
M  V30 39 1 17 23
M  V30 40 2 54 58
M  V30 41 1 43 38
M  V30 42 1 28 23
M  V30 43 2 38 33
M  V30 44 1 11 15
M  V30 45 1 11 10
M  V30 46 1 27 21
M  V30 47 2 27 26
M  V30 48 1 15 13 CFG=1
M  V30 49 1 15 29
M  V30 50 1 23 34
M  V30 51 1 23 20
M  V30 52 1 33 26
M  V30 53 1 33 29
M  V30 54 2 51 55
M  V30 55 1 26 19
M  V30 56 1 58 55
M  V30 57 1 58 59
M  V30 58 1 29 32
M  V30 59 1 55 57
M  V30 60 1 60 61
M  V30 61 1 22 32
M  V30 62 1 32 30
M  V30 63 1 32 39
M  V30 64 2 62 63
M  V30 65 2 63 64
M  V30 66 1 42 62
M  V30 67 9 28 42
M  V30 68 9 29 42
M  V30 69 9 43 42
M  V30 70 9 51 42
M  V30 END BOND
M  V30 END CTAB
M  END
