
     RDKit          3D

  0  0  0  0  0  0  0  0  0  0999 V3000
M  V30 BEGIN CTAB
M  V30 COUNTS 62 69 0 0 0
M  V30 BEGIN ATOM
M  V30 1 H 2.324000 5.241410 0.356690 0
M  V30 2 H 4.373220 3.798440 -0.017660 0
M  V30 3 H 3.352200 3.870070 -1.449000 0
M  V30 4 C 2.268780 4.149400 0.405250 0
M  V30 5 C 3.393280 3.512060 -0.411800 0
M  V30 6 H 2.367960 3.873420 1.463920 0
M  V30 7 H 0.821490 4.023010 -1.175960 0
M  V30 8 H 0.099260 4.187270 0.412790 0
M  V30 9 C 0.905300 3.695450 -0.134020 0
M  V30 10 H 4.062160 1.527010 -0.976230 0
M  V30 11 C 3.269420 1.982090 -0.375120 0
M  V30 12 H 3.408790 1.641390 0.656390 0
M  V30 13 H 1.779490 1.827640 -1.925030 0
M  V30 14 H -1.351630 3.465340 1.418250 0
M  V30 15 C 1.893290 1.514340 -0.883770 0
M  V30 16 C 0.754160 2.155440 -0.068300 0
M  V30 17 H -1.301990 3.348710 -1.629050 0
M  V30 18 H 0.811360 1.819700 0.971360 0
M  V30 19 H 4.373530 -0.867850 -0.445850 0
M  V30 20 H -0.207330 2.306480 -2.593690 0
M  V30 21 H 5.184870 -1.871350 1.645440 0
M  V30 22 H 3.453760 -0.132220 -2.285150 0
M  V30 23 C -1.010770 2.322370 -1.861000 0
M  V30 24 H -3.514170 3.444330 2.582110 0
M  V30 25 C -2.036720 2.652940 1.218620 0
M  V30 26 C 3.665390 -1.041970 0.354620 0
M  V30 27 C 4.133840 -1.616480 1.559880 0
M  V30 28 N -0.571080 1.636690 -0.592130 0
M  V30 29 N 1.772570 -0.025970 -0.961170 0
M  V30 30 H 1.859080 -0.105710 -3.068600 0
M  V30 31 C -3.292570 2.648150 1.879120 0
M  V30 32 C 2.426440 -0.497790 -2.227100 0
M  V30 33 C 2.335020 -0.695620 0.216070 0
M  V30 34 H -1.861790 1.783310 -2.271280 0
M  V30 35 C -1.722430 1.657860 0.317170 0
M  V30 36 H 3.634510 -2.281720 3.538560 0
M  V30 37 C 3.274970 -1.845410 2.611730 0
M  V30 38 C 1.430190 -0.980670 1.255270 0
M  V30 39 H 2.415150 -1.585900 -2.244440 0
M  V30 40 C 1.894210 -1.547500 2.477730 0
M  V30 41 C -4.237750 1.685240 1.604360 0
M  V30 42 Fe -0.269830 -0.398150 -0.965840 0 CHG=2 VAL=6
M  V30 43 N 0.092130 -0.773410 1.016370 0
M  V30 44 H -5.214320 1.713760 2.077980 0
M  V30 45 C -2.644090 0.602440 0.105670 0
M  V30 46 C 0.932370 -1.833070 3.475870 0
M  V30 47 H 1.251920 -2.259630 4.422470 0
M  V30 48 C -3.932460 0.626960 0.707090 0
M  V30 49 C -0.785160 -1.086150 1.971100 0
M  V30 50 C -0.402930 -1.593090 3.223050 0
M  V30 51 N -2.229590 -0.476950 -0.638250 0
M  V30 52 H -1.831840 -0.952440 1.742310 0
M  V30 53 H -1.168710 -1.816810 3.957120 0
M  V30 54 C -4.819250 -0.435700 0.392730 0
M  V30 55 C -3.078800 -1.462850 -0.916650 0
M  V30 56 H -5.819820 -0.438740 0.816090 0
M  V30 57 H -2.692400 -2.289060 -1.500410 0
M  V30 58 C -4.403440 -1.456660 -0.437810 0
M  V30 59 H -5.061260 -2.277330 -0.701450 0
M  V30 60 O -0.411870 -0.157810 -2.683260 0
M  V30 61 H -0.460620 -0.993830 -3.188720 0
M  V30 62 Br 0.014680 -2.845080 -1.272660 0
M  V30 END ATOM
M  V30 BEGIN BOND
M  V30 1 1 61 60
M  V30 2 1 30 32
M  V30 3 1 60 42
M  V30 4 1 20 23
M  V30 5 1 22 32
M  V30 6 1 34 23
M  V30 7 1 39 32
M  V30 8 1 32 29
M  V30 9 1 13 15
M  V30 10 1 23 17
M  V30 11 1 23 28
M  V30 12 1 57 55
M  V30 13 1 3 5
M  V30 14 1 62 42
M  V30 15 1 7 9
M  V30 16 1 10 11
M  V30 17 1 29 15
M  V30 18 1 29 33
M  V30 19 1 55 51
M  V30 20 2 55 58
M  V30 21 1 15 11
M  V30 22 1 15 16
M  V30 23 1 59 58
M  V30 24 2 51 45
M  V30 25 1 28 16
M  V30 26 1 28 35
M  V30 27 1 19 26
M  V30 28 1 58 54
M  V30 29 1 5 11
M  V30 30 1 5 2
M  V30 31 1 5 4
M  V30 32 1 11 12
M  V30 33 1 9 16
M  V30 34 1 9 4
M  V30 35 1 9 8
M  V30 36 1 16 18
M  V30 37 1 45 35
M  V30 38 1 45 48
M  V30 39 2 33 26
M  V30 40 1 33 38
M  V30 41 2 35 25
M  V30 42 1 26 27
M  V30 43 1 1 4
M  V30 44 2 54 48
M  V30 45 1 54 56
M  V30 46 1 4 6
M  V30 47 1 48 41
M  V30 48 2 43 38
M  V30 49 1 43 49
M  V30 50 1 25 14
M  V30 51 1 25 31
M  V30 52 1 38 40
M  V30 53 1 27 21
M  V30 54 2 27 37
M  V30 55 2 41 31
M  V30 56 1 41 44
M  V30 57 1 52 49
M  V30 58 1 31 24
M  V30 59 2 49 50
M  V30 60 1 40 37
M  V30 61 2 40 46
M  V30 62 1 37 36
M  V30 63 1 50 46
M  V30 64 1 50 53
M  V30 65 1 46 47
M  V30 66 9 28 42
M  V30 67 9 29 42
M  V30 68 9 43 42
M  V30 69 9 51 42
M  V30 END BOND
M  V30 END CTAB
M  END
