
     RDKit          3D

  0  0  0  0  0  0  0  0  0  0999 V3000
M  V30 BEGIN CTAB
M  V30 COUNTS 67 74 0 0 0
M  V30 BEGIN ATOM
M  V30 1 H 2.610440 1.090080 4.804060 0
M  V30 2 H 4.545160 1.359550 3.192040 0
M  V30 3 H 3.328120 2.610340 2.965270 0
M  V30 4 C 2.530640 0.763320 3.762420 0
M  V30 5 C 3.511650 1.531070 2.874870 0
M  V30 6 H 2.769740 -0.309080 3.746840 0
M  V30 7 H 0.890850 2.069050 3.326090 0
M  V30 8 H 0.378640 0.509290 3.929850 0
M  V30 9 C 1.098200 0.994330 3.266650 0
M  V30 10 H 4.041370 1.651770 0.775300 0
M  V30 11 C 3.354130 1.088040 1.414630 0
M  V30 12 H 3.637070 0.032430 1.340420 0
M  V30 13 H 1.660970 2.326480 0.929150 0
M  V30 14 H -0.699220 -1.041450 3.461780 0
M  V30 15 C 1.911890 1.260620 0.900480 0
M  V30 16 C 0.900730 0.520020 1.806510 0
M  V30 17 H -1.331450 2.044810 2.753960 0
M  V30 18 H 1.091680 -0.556200 1.736880 0
M  V30 19 H 4.370590 0.385450 -1.237870 0
M  V30 20 H -0.401550 2.842780 1.453870 0
M  V30 21 H 5.376820 -1.791930 -1.754120 0
M  V30 22 H 3.275180 2.257280 -1.269030 0
M  V30 23 C -1.095150 2.034920 1.686870 0
M  V30 24 H -2.568470 -2.564140 3.902630 0
M  V30 25 C -1.497810 -1.095350 2.734100 0
M  V30 26 C 3.731860 -0.489150 -1.241300 0
M  V30 27 C 4.315420 -1.743650 -1.534410 0
M  V30 28 N -0.498790 0.721010 1.278590 0
M  V30 29 N 1.751870 0.893570 -0.575310 0
M  V30 30 H 1.620990 2.894620 -1.232600 0
M  V30 31 C -2.582360 -1.973390 2.992490 0
M  V30 32 C 2.224570 2.012840 -1.446140 0
M  V30 33 C 2.386500 -0.375350 -0.941910 0
M  V30 34 H -2.010100 2.193290 1.117090 0
M  V30 35 C -1.473140 -0.315680 1.595600 0
M  V30 36 H 3.999360 -3.857050 -1.735890 0
M  V30 37 C 3.553170 -2.889420 -1.527150 0
M  V30 38 H -0.972040 5.933360 -1.799440 0
M  V30 39 C 1.571340 -1.536140 -0.998380 0
M  V30 40 H 2.076990 1.726440 -2.487330 0
M  V30 41 C 2.161160 -2.809910 -1.270550 0
M  V30 42 C -3.655290 -2.052130 2.134610 0
M  V30 43 N -0.872480 2.837500 -1.183930 0
M  V30 44 Fe -0.399860 0.672300 -1.016070 0 CHG=2 VAL=6
M  V30 45 C -1.228530 3.860740 -1.592680 0
M  V30 46 N 0.216450 -1.403120 -0.837420 0
M  V30 47 C -1.669950 5.148130 -2.109020 0
M  V30 48 H -4.502030 -2.694250 2.357130 0
M  V30 49 C -2.527910 -0.465610 0.650090 0
M  V30 50 C 1.306090 -3.939620 -1.302700 0
M  V30 51 H 1.729130 -4.921870 -1.493900 0
M  V30 52 H -2.667260 5.383580 -1.722780 0
M  V30 53 C -3.646520 -1.301980 0.929080 0
M  V30 54 C -0.555500 -2.482970 -0.904120 0
M  V30 55 H -1.706270 5.111660 -3.203110 0
M  V30 56 C -0.049430 -3.779130 -1.111540 0
M  V30 57 N -2.395450 0.155180 -0.564540 0
M  V30 58 H -1.621670 -2.322400 -0.802640 0
M  V30 59 H -0.731570 -4.621380 -1.141560 0
M  V30 60 O -0.384700 0.601900 -2.822540 0
M  V30 61 C -4.671380 -1.367100 -0.050320 0
M  V30 62 C -3.358500 0.049130 -1.477330 0
M  V30 63 H -5.550770 -1.975970 0.141280 0
M  V30 64 H -3.163510 0.531900 -2.429600 0
M  V30 65 C -4.539600 -0.678950 -1.241140 0
M  V30 66 H -5.307100 -0.720020 -2.006030 0
M  V30 67 H -0.145190 -0.108360 -3.439780 0
M  V30 END ATOM
M  V30 BEGIN BOND
M  V30 1 1 67 60
M  V30 2 1 55 47
M  V30 3 1 60 44
M  V30 4 1 40 32
M  V30 5 1 64 62
M  V30 6 1 47 38
M  V30 7 1 47 52
M  V30 8 1 47 45
M  V30 9 1 66 65
M  V30 10 1 21 27
M  V30 11 1 36 37
M  V30 12 3 45 43
M  V30 13 1 27 37
M  V30 14 2 27 26
M  V30 15 2 37 41
M  V30 16 1 51 50
M  V30 17 2 62 65
M  V30 18 1 62 57
M  V30 19 1 32 22
M  V30 20 1 32 30
M  V30 21 1 32 29
M  V30 22 1 50 41
M  V30 23 2 50 56
M  V30 24 1 41 39
M  V30 25 1 26 19
M  V30 26 1 26 33
M  V30 27 1 65 61
M  V30 28 1 59 56
M  V30 29 1 56 54
M  V30 30 2 39 33
M  V30 31 1 39 46
M  V30 32 1 33 29
M  V30 33 2 54 46
M  V30 34 1 54 58
M  V30 35 1 29 15
M  V30 36 2 57 49
M  V30 37 1 61 63
M  V30 38 2 61 53
M  V30 39 1 49 53
M  V30 40 1 49 35
M  V30 41 1 10 11
M  V30 42 1 15 13
M  V30 43 1 15 11
M  V30 44 1 15 16
M  V30 45 1 53 42
M  V30 46 1 34 23
M  V30 47 1 28 35
M  V30 48 1 28 23
M  V30 49 1 28 16
M  V30 50 1 12 11
M  V30 51 1 11 5
M  V30 52 1 20 23
M  V30 53 2 35 25
M  V30 54 1 23 17
M  V30 55 1 18 16
M  V30 56 1 16 9
M  V30 57 1 42 48
M  V30 58 2 42 31
M  V30 59 1 25 31
M  V30 60 1 25 14
M  V30 61 1 5 3
M  V30 62 1 5 2
M  V30 63 1 5 4
M  V30 64 1 31 24
M  V30 65 1 9 7
M  V30 66 1 9 4
M  V30 67 1 9 8
M  V30 68 1 6 4
M  V30 69 1 4 1
M  V30 70 9 28 44
M  V30 71 9 29 44
M  V30 72 9 43 44
M  V30 73 9 46 44
M  V30 74 9 57 44
M  V30 END BOND
M  V30 END CTAB
M  END
