
     RDKit          3D

  0  0  0  0  0  0  0  0  0  0999 V3000
M  V30 BEGIN CTAB
M  V30 COUNTS 62 69 0 0 0
M  V30 BEGIN ATOM
M  V30 1 H -2.095120 4.568740 -2.034230 0
M  V30 2 H -4.195110 3.408170 -1.232620 0
M  V30 3 H -3.213000 3.974530 0.113060 0
M  V30 4 C -2.070380 3.535460 -1.674510 0
M  V30 5 C -3.237150 3.263780 -0.723700 0
M  V30 6 H -2.150470 2.890380 -2.560150 0
M  V30 7 H -0.640800 3.990680 -0.130820 0
M  V30 8 H 0.089020 3.505320 -1.656840 0
M  V30 9 C -0.728060 3.288700 -0.967270 0
M  V30 10 H -3.978130 1.629590 0.504750 0
M  V30 11 C -3.159880 1.824990 -0.195910 0
M  V30 12 H -3.280190 1.129340 -1.033850 0
M  V30 13 H -1.728170 2.239340 1.351180 0
M  V30 14 H 1.867060 2.897850 -1.841300 0
M  V30 15 C -1.814600 1.559840 0.499440 0
M  V30 16 C -0.622790 1.838140 -0.446910 0
M  V30 17 H 1.354620 3.475480 0.754170 0
M  V30 18 H -0.653500 1.147050 -1.292090 0
M  V30 19 H -4.363470 -0.804270 1.159820 0
M  V30 20 H 0.215760 2.793090 1.955810 0
M  V30 21 H -5.290200 -2.482330 -0.375750 0
M  V30 22 H -3.359010 0.527710 2.502780 0
M  V30 23 C 1.051260 2.576800 1.294000 0
M  V30 24 H 4.055830 2.401770 -2.829350 0
M  V30 25 C 2.406680 2.031450 -1.484790 0
M  V30 26 C -3.706330 -1.251030 0.424080 0
M  V30 27 C -4.243320 -2.212530 -0.466360 0
M  V30 28 N 0.670680 1.507470 0.300490 0
M  V30 29 N -1.742310 0.160230 1.145020 0
M  V30 30 H -1.733790 0.894590 3.123690 0
M  V30 31 C 3.682450 1.756520 -2.041040 0
M  V30 32 C -2.318050 0.197490 2.526620 0
M  V30 33 C -2.379000 -0.883310 0.333060 0
M  V30 34 H 1.882410 2.211490 1.893050 0
M  V30 35 C 1.889520 1.231550 -0.486320 0
M  V30 36 H -3.876590 -3.515230 -2.132150 0
M  V30 37 C -3.460020 -2.788560 -1.441480 0
M  V30 38 C -1.547310 -1.507920 -0.615150 0
M  V30 39 H -2.247730 -0.805370 2.947960 0
M  V30 40 C -2.084520 -2.452370 -1.536460 0
M  V30 41 C 4.457600 0.718320 -1.573340 0
M  V30 42 Fe 0.243440 -0.295860 1.221080 0 CHG=2 VAL=6
M  V30 43 N -0.209830 -1.201340 -0.587940 0
M  V30 44 H 5.446070 0.534250 -1.983010 0
M  V30 45 C 2.663020 0.135340 -0.026680 0
M  V30 46 C -1.196430 -3.021840 -2.480440 0
M  V30 47 H -1.570600 -3.741200 -3.203360 0
M  V30 48 C 3.960750 -0.127880 -0.547560 0
M  V30 49 C 0.596400 -1.765980 -1.485680 0
M  V30 50 C 0.136570 -2.664660 -2.463400 0
M  V30 51 N 2.103070 -0.711800 0.891910 0
M  V30 52 H 1.646380 -1.514440 -1.435940 0
M  V30 53 H 0.844490 -3.082160 -3.170510 0
M  V30 54 C 4.660700 -1.245100 -0.018720 0
M  V30 55 C 2.757040 -1.768710 1.357880 0
M  V30 56 H 5.661300 -1.463700 -0.381270 0
M  V30 57 H 2.210080 -2.398780 2.050580 0
M  V30 58 C 4.069910 -2.052150 0.934890 0
M  V30 59 H 4.585550 -2.912600 1.346400 0
M  V30 60 O 0.515560 0.446210 2.771210 0
M  V30 61 H 0.474360 -0.257060 3.451660 0
M  V30 62 F -0.082960 -1.855510 1.978760 0
M  V30 END ATOM
M  V30 BEGIN BOND
M  V30 1 1 47 46
M  V30 2 1 53 50
M  V30 3 1 24 31
M  V30 4 1 6 4
M  V30 5 2 46 50
M  V30 6 1 46 40
M  V30 7 1 50 49
M  V30 8 1 36 37
M  V30 9 1 31 41
M  V30 10 2 31 25
M  V30 11 1 1 4
M  V30 12 1 44 41
M  V30 13 1 14 25
M  V30 14 1 4 9
M  V30 15 1 4 5
M  V30 16 1 8 9
M  V30 17 2 41 48
M  V30 18 2 40 37
M  V30 19 1 40 38
M  V30 20 1 49 52
M  V30 21 2 49 43
M  V30 22 1 25 35
M  V30 23 1 37 27
M  V30 24 1 18 16
M  V30 25 1 2 5
M  V30 26 1 12 11
M  V30 27 1 9 16
M  V30 28 1 9 7
M  V30 29 1 5 11
M  V30 30 1 5 3
M  V30 31 1 38 43
M  V30 32 2 38 33
M  V30 33 1 48 45
M  V30 34 1 48 54
M  V30 35 2 35 45
M  V30 36 1 35 28
M  V30 37 1 27 21
M  V30 38 2 27 26
M  V30 39 1 16 28
M  V30 40 1 16 15
M  V30 41 1 56 54
M  V30 42 1 11 15
M  V30 43 1 11 10
M  V30 44 1 45 51
M  V30 45 2 54 58
M  V30 46 1 28 23
M  V30 47 1 33 26
M  V30 48 1 33 29
M  V30 49 1 26 19
M  V30 50 1 15 29
M  V30 51 1 15 13
M  V30 52 1 17 23
M  V30 53 2 51 55
M  V30 54 1 58 59
M  V30 55 1 58 55
M  V30 56 1 29 32
M  V30 57 1 42 62
M  V30 58 1 42 60
M  V30 59 1 23 34
M  V30 60 1 23 20
M  V30 61 1 55 57
M  V30 62 1 22 32
M  V30 63 1 32 39
M  V30 64 1 32 30
M  V30 65 1 60 61
M  V30 66 9 28 42
M  V30 67 9 29 42
M  V30 68 9 43 42
M  V30 69 9 51 42
M  V30 END BOND
M  V30 END CTAB
M  END
