
     RDKit          3D

  0  0  0  0  0  0  0  0  0  0999 V3000
M  V30 BEGIN CTAB
M  V30 COUNTS 51 58 0 0 0
M  V30 BEGIN ATOM
M  V30 1 Fe 0.062750 -0.000280 0.772750 0 CHG=2 VAL=6
M  V30 2 N -0.135540 -0.000220 -1.475510 0
M  V30 3 N -1.510520 1.421960 0.385480 0
M  V30 4 N -1.511090 -1.421790 0.385540 0
M  V30 5 N 1.506270 1.455750 0.211980 0
M  V30 6 N 1.506190 -1.456330 0.211860 0
M  V30 7 C -1.893100 2.423500 1.192890 0
M  V30 8 C -2.931820 3.284260 0.840300 0
M  V30 9 C -3.578120 3.092120 -0.381020 0
M  V30 10 C -3.175050 2.042770 -1.217270 0
M  V30 11 C -2.136610 1.224960 -0.795000 0
M  V30 12 C -1.633830 0.000070 -1.550340 0
M  V30 13 C -2.137130 -1.224550 -0.794930 0
M  V30 14 C -3.175960 -2.041900 -1.217130 0
M  V30 15 C -3.579480 -3.091040 -0.380820 0
M  V30 16 C -2.933240 -3.283420 0.840490 0
M  V30 17 C -1.894110 -2.423130 1.193010 0
M  V30 18 C 2.408640 1.953160 1.082000 0
M  V30 19 C 3.452410 2.772720 0.669020 0
M  V30 20 C 3.569900 3.071470 -0.689970 0
M  V30 21 C 2.635090 2.549890 -1.587390 0
M  V30 22 C 1.605570 1.748620 -1.102420 0
M  V30 23 C 0.498530 1.239080 -2.002420 0
M  V30 24 C 0.498060 -1.239820 -2.002290 0
M  V30 25 C 1.605480 -1.749030 -1.102600 0
M  V30 26 C 2.635250 -2.549850 -1.587750 0
M  V30 27 C 3.570340 -3.071190 -0.690460 0
M  V30 28 C 3.452840 -2.772660 0.668570 0
M  V30 29 C 2.408810 -1.953510 1.081740 0
M  V30 30 H -1.354510 2.513930 2.130240 0
M  V30 31 H -3.223520 4.082960 1.513510 0
M  V30 32 H -4.388060 3.748520 -0.683910 0
M  V30 33 H -3.660300 1.868940 -2.172360 0
M  V30 34 H -1.996240 0.000120 -2.584600 0
M  V30 35 H -3.661160 -1.867900 -2.172220 0
M  V30 36 H -4.389730 -3.747080 -0.683660 0
M  V30 37 H -3.225270 -4.081960 1.513740 0
M  V30 38 H -1.355530 -2.513760 2.130340 0
M  V30 39 H 2.270830 1.672170 2.120090 0
M  V30 40 H 4.156790 3.159500 1.397310 0
M  V30 41 H 4.378830 3.700520 -1.048590 0
M  V30 42 H 2.701190 2.767510 -2.648870 0
M  V30 43 H 2.701340 -2.767330 -2.649260 0
M  V30 44 H 4.379480 -3.699880 -1.049230 0
M  V30 45 H 4.157420 -3.159280 1.396760 0
M  V30 46 H 2.270990 -1.672700 2.119870 0
M  V30 47 H 0.871660 1.079770 -3.019740 0
M  V30 48 H -0.266830 2.018420 -2.068980 0
M  V30 49 H 0.870610 -1.081040 -3.019900 0
M  V30 50 H -0.267450 -2.019070 -2.067990 0
M  V30 51 Cl 0.163310 -0.000350 2.977860 0
M  V30 END ATOM
M  V30 BEGIN BOND
M  V30 1 1 49 24
M  V30 2 1 47 23
M  V30 3 1 43 26
M  V30 4 1 42 21
M  V30 5 1 34 12
M  V30 6 1 33 10
M  V30 7 1 35 14
M  V30 8 1 48 23
M  V30 9 1 50 24
M  V30 10 1 23 2
M  V30 11 1 23 22
M  V30 12 1 24 2
M  V30 13 1 24 25
M  V30 14 1 26 25
M  V30 15 2 26 27
M  V30 16 1 21 22
M  V30 17 2 21 20
M  V30 18 1 12 2
M  V30 19 1 12 11
M  V30 20 1 12 13
M  V30 21 1 10 11
M  V30 22 2 10 9
M  V30 23 1 14 13
M  V30 24 2 14 15
M  V30 25 2 25 6
M  V30 26 2 22 5
M  V30 27 1 44 27
M  V30 28 1 41 20
M  V30 29 2 11 3
M  V30 30 2 13 4
M  V30 31 1 27 28
M  V30 32 1 20 19
M  V30 33 1 32 9
M  V30 34 1 36 15
M  V30 35 1 9 8
M  V30 36 1 15 16
M  V30 37 1 6 29
M  V30 38 1 5 18
M  V30 39 1 3 7
M  V30 40 1 4 17
M  V30 41 2 28 29
M  V30 42 1 28 45
M  V30 43 2 19 18
M  V30 44 1 19 40
M  V30 45 1 1 51
M  V30 46 2 8 7
M  V30 47 1 8 31
M  V30 48 2 16 17
M  V30 49 1 16 37
M  V30 50 1 29 46
M  V30 51 1 18 39
M  V30 52 1 7 30
M  V30 53 1 17 38
M  V30 54 9 2 1
M  V30 55 9 3 1
M  V30 56 9 4 1
M  V30 57 9 5 1
M  V30 58 9 6 1
M  V30 END BOND
M  V30 END CTAB
M  END
