
     RDKit          3D

  0  0  0  0  0  0  0  0  0  0999 V3000
M  V30 BEGIN CTAB
M  V30 COUNTS 53 59 0 0 0
M  V30 BEGIN ATOM
M  V30 1 Fe 0.064800 -0.000440 0.677490 0 CHG=2 VAL=5
M  V30 2 N -0.102200 -0.000200 -1.575900 0
M  V30 3 N -1.519400 1.437900 0.246700 0
M  V30 4 N -1.520300 -1.437700 0.246600 0
M  V30 5 N 1.529100 1.456700 0.125800 0
M  V30 6 N 1.528900 -1.457500 0.125400 0
M  V30 7 C -1.920400 2.457200 1.021600 0
M  V30 8 C -2.950000 3.313700 0.634600 0
M  V30 9 C -3.571500 3.100100 -0.596100 0
M  V30 10 C -3.148200 2.037800 -1.403900 0
M  V30 11 C -2.118800 1.226900 -0.944400 0
M  V30 12 C -1.596500 0.000300 -1.683700 0
M  V30 13 C -2.119600 -1.226100 -0.944500 0
M  V30 14 C -3.149600 -2.036200 -1.404000 0
M  V30 15 C -3.573600 -3.098200 -0.596300 0
M  V30 16 C -2.952200 -3.312500 0.634300 0
M  V30 17 C -1.922000 -2.456700 1.021400 0
M  V30 18 C 2.431900 1.947400 0.997000 0
M  V30 19 C 3.490600 2.751300 0.591000 0
M  V30 20 C 3.622200 3.041800 -0.768700 0
M  V30 21 C 2.688200 2.526900 -1.669900 0
M  V30 22 C 1.644600 1.740800 -1.188000 0
M  V30 23 C 0.540800 1.236800 -2.096100 0
M  V30 24 C 0.540100 -1.237500 -2.096200 0
M  V30 25 C 1.644400 -1.741200 -1.188500 0
M  V30 26 C 2.688400 -2.526600 -1.670900 0
M  V30 27 C 3.622800 -3.041400 -0.769900 0
M  V30 28 C 3.491200 -2.751300 0.589900 0
M  V30 29 C 2.432200 -1.948100 0.996200 0
M  V30 30 H -1.397900 2.575200 1.965100 0
M  V30 31 H -3.252500 4.126500 1.285900 0
M  V30 32 H -4.374000 3.751400 -0.928300 0
M  V30 33 H -3.609200 1.849100 -2.368200 0
M  V30 34 H -1.937800 0.000400 -2.725500 0
M  V30 35 H -3.610500 -1.847100 -2.368300 0
M  V30 36 H -4.376600 -3.748900 -0.928500 0
M  V30 37 H -3.255300 -4.125000 1.285600 0
M  V30 38 H -1.399500 -2.575200 1.964800 0
M  V30 39 H 2.283700 1.671300 2.035300 0
M  V30 40 H 4.195100 3.132300 1.322200 0
M  V30 41 H 4.442000 3.658500 -1.124100 0
M  V30 42 H 2.766000 2.736800 -2.732200 0
M  V30 43 H 2.766100 -2.736200 -2.733200 0
M  V30 44 H 4.442800 -3.657600 -1.125700 0
M  V30 45 H 4.196000 -3.132200 1.320900 0
M  V30 46 H 2.284000 -1.672400 2.034700 0
M  V30 47 H 0.920300 1.079700 -3.111700 0
M  V30 48 H -0.219900 2.020400 -2.165700 0
M  V30 49 H 0.918800 -1.080900 -3.112200 0
M  V30 50 H -0.220800 -2.021000 -2.164700 0
M  V30 51 N 0.132700 -0.000700 2.530500 0
M  V30 52 N -0.080500 -0.000900 3.726000 0 CHG=1 VAL=4
M  V30 53 N -0.273300 -0.001200 4.856200 0 CHG=-1 VAL=2
M  V30 END ATOM
M  V30 BEGIN BOND
M  V30 1 1 49 24
M  V30 2 1 47 23
M  V30 3 1 43 26
M  V30 4 1 42 21
M  V30 5 1 34 12
M  V30 6 1 35 14
M  V30 7 1 33 10
M  V30 8 1 48 23
M  V30 9 1 50 24
M  V30 10 1 24 2
M  V30 11 1 24 25
M  V30 12 1 23 2
M  V30 13 1 23 22
M  V30 14 1 12 2
M  V30 15 1 12 13
M  V30 16 1 12 11
M  V30 17 1 26 25
M  V30 18 2 26 27
M  V30 19 1 21 22
M  V30 20 2 21 20
M  V30 21 1 14 13
M  V30 22 2 14 15
M  V30 23 1 10 11
M  V30 24 2 10 9
M  V30 25 2 25 6
M  V30 26 2 22 5
M  V30 27 1 44 27
M  V30 28 1 41 20
M  V30 29 2 13 4
M  V30 30 2 11 3
M  V30 31 1 36 15
M  V30 32 1 32 9
M  V30 33 1 27 28
M  V30 34 1 20 19
M  V30 35 1 15 16
M  V30 36 1 9 8
M  V30 37 1 6 29
M  V30 38 1 5 18
M  V30 39 1 4 17
M  V30 40 1 3 7
M  V30 41 2 28 29
M  V30 42 1 28 45
M  V30 43 2 19 18
M  V30 44 1 19 40
M  V30 45 2 16 17
M  V30 46 1 16 37
M  V30 47 2 8 7
M  V30 48 1 8 31
M  V30 49 1 29 46
M  V30 50 1 18 39
M  V30 51 1 17 38
M  V30 52 1 7 30
M  V30 53 2 51 52
M  V30 54 2 52 53
M  V30 55 1 1 51
M  V30 56 9 3 1
M  V30 57 9 4 1
M  V30 58 9 5 1
M  V30 59 9 6 1
M  V30 END BOND
M  V30 END CTAB
M  END
