
     RDKit          3D

  0  0  0  0  0  0  0  0  0  0999 V3000
M  V30 BEGIN CTAB
M  V30 COUNTS 52 55 0 0 0
M  V30 BEGIN ATOM
M  V30 1 Fe 0.000000 -0.000020 0.440990 0 CHG=2 VAL=5
M  V30 2 H 3.629050 1.085790 -2.048120 0
M  V30 3 H 1.971980 2.763080 -1.782100 0
M  V30 4 H 1.753720 3.541770 0.531020 0
M  V30 5 H 3.543340 1.382000 -0.339130 0
M  V30 6 C 2.981280 0.954130 -1.173490 0
M  V30 7 H 2.155820 1.969460 1.264830 0
M  V30 8 C 1.708620 1.746160 -1.462400 0
M  V30 9 C 1.353760 2.571100 0.846370 0
M  V30 10 H -0.211960 3.711740 -0.847840 0
M  V30 11 H 3.187680 0.259380 1.489360 0
M  V30 12 H 1.165160 1.275270 -2.290080 0
M  V30 13 H 3.749850 -1.055440 -0.978120 0
M  V30 14 H 0.610180 2.718860 1.628890 0
M  V30 15 N 0.734850 1.870180 -0.323040 0
M  V30 16 H 3.674910 -1.443090 1.435750 0
M  V30 17 C 2.775210 -0.550750 -1.011770 0
M  V30 18 C -0.459970 2.644600 -0.799600 0
M  V30 19 H -0.681440 2.317830 -1.818240 0
M  V30 20 C 2.815700 -0.761990 1.441440 0
M  V30 21 H 2.246250 -0.929320 -1.891580 0
M  V30 22 H -1.441750 2.772140 1.124410 0
M  V30 23 N 1.999600 -0.964810 0.203430 0
M  V30 24 H 2.194360 -0.948210 2.316900 0
M  V30 25 C -1.653780 2.420480 0.112620 0
M  V30 26 H -2.518090 2.989690 -0.251500 0
M  V30 27 H 2.518130 -2.989690 -0.251430 0
M  V30 28 C 1.653800 -2.420470 0.112650 0
M  V30 29 H -2.246450 0.929480 -1.891560 0
M  V30 30 N -1.999600 0.964820 0.203430 0
M  V30 31 H 0.681470 -2.317990 -1.818230 0
M  V30 32 H 1.441750 -2.772090 1.124460 0
M  V30 33 H -2.194270 0.948050 2.316920 0
M  V30 34 C 0.459990 -2.644660 -0.799560 0
M  V30 35 C -2.775290 0.550780 -1.011730 0
M  V30 36 H -1.164940 -1.274860 -2.290030 0
M  V30 37 H -3.749970 1.055370 -0.977940 0
M  V30 38 C -2.815670 0.762000 1.441460 0
M  V30 39 H -3.674800 1.443210 1.435870 0
M  V30 40 N -0.734830 -1.870180 -0.323060 0
M  V30 41 H 0.211970 -3.711810 -0.847700 0
M  V30 42 C -1.708470 -1.745970 -1.462510 0
M  V30 43 H -0.610330 -2.719480 1.628590 0
M  V30 44 C -2.981210 -0.954100 -1.173540 0
M  V30 45 H -3.187790 -0.259330 1.489280 0
M  V30 46 H -3.629000 -1.085770 -2.048160 0
M  V30 47 C -1.353950 -2.571120 0.846220 0
M  V30 48 H -1.971720 -2.762840 -1.782470 0
M  V30 49 H -2.155640 -1.969190 1.264970 0
M  V30 50 H -3.543180 -1.382100 -0.339170 0
M  V30 51 H -1.754430 -3.541510 0.530640 0
M  V30 52 F -0.000020 -0.000100 2.187070 0
M  V30 END ATOM
M  V30 BEGIN BOND
M  V30 1 1 12 8
M  V30 2 1 36 42
M  V30 3 1 46 44
M  V30 4 1 2 6
M  V30 5 1 21 17
M  V30 6 1 29 35
M  V30 7 1 19 18
M  V30 8 1 31 34
M  V30 9 1 48 42
M  V30 10 1 3 8
M  V30 11 1 42 44
M  V30 12 1 42 40
M  V30 13 1 8 6
M  V30 14 1 8 15
M  V30 15 1 44 35
M  V30 16 1 44 50
M  V30 17 1 6 17
M  V30 18 1 6 5
M  V30 19 1 17 13
M  V30 20 1 17 23
M  V30 21 1 35 37
M  V30 22 1 35 30
M  V30 23 1 10 18
M  V30 24 1 41 34
M  V30 25 1 18 15
M  V30 26 1 18 25
M  V30 27 1 34 40
M  V30 28 1 34 28
M  V30 29 1 40 47
M  V30 30 1 15 9
M  V30 31 1 26 25
M  V30 32 1 27 28
M  V30 33 1 25 30
M  V30 34 1 25 22
M  V30 35 1 28 23
M  V30 36 1 28 32
M  V30 37 1 30 38
M  V30 38 1 23 20
M  V30 39 1 1 52
M  V30 40 1 51 47
M  V30 41 1 4 9
M  V30 42 1 47 49
M  V30 43 1 47 43
M  V30 44 1 9 7
M  V30 45 1 9 14
M  V30 46 1 16 20
M  V30 47 1 39 38
M  V30 48 1 20 11
M  V30 49 1 20 24
M  V30 50 1 38 45
M  V30 51 1 38 33
M  V30 52 9 15 1
M  V30 53 9 23 1
M  V30 54 9 30 1
M  V30 55 9 40 1
M  V30 END BOND
M  V30 END CTAB
M  END
