
     RDKit          3D

  0  0  0  0  0  0  0  0  0  0999 V3000
M  V30 BEGIN CTAB
M  V30 COUNTS 51 58 0 0 0
M  V30 BEGIN ATOM
M  V30 1 Fe 0.057800 -0.000290 0.537550 0 CHG=2 VAL=6
M  V30 2 N -0.158980 -0.000120 -1.694770 0
M  V30 3 N -1.523360 1.429030 0.169200 0
M  V30 4 N -1.523970 -1.428810 0.169130 0
M  V30 5 N 1.507850 1.457410 -0.026560 0
M  V30 6 N 1.507750 -1.457960 -0.026820 0
M  V30 7 C -1.902980 2.438370 0.969180 0
M  V30 8 C -2.943930 3.296120 0.616170 0
M  V30 9 C -3.598420 3.094400 -0.599040 0
M  V30 10 C -3.198630 2.039330 -1.429100 0
M  V30 11 C -2.156870 1.225670 -1.006650 0
M  V30 12 C -1.657560 0.000200 -1.762200 0
M  V30 13 C -2.157410 -1.225080 -1.006710 0
M  V30 14 C -3.199570 -2.038220 -1.429170 0
M  V30 15 C -3.599850 -3.093140 -0.599160 0
M  V30 16 C -2.945430 -3.295240 0.616020 0
M  V30 17 C -1.904060 -2.438010 0.969060 0
M  V30 18 C 2.427340 1.955910 0.825260 0
M  V30 19 C 3.470000 2.766780 0.392670 0
M  V30 20 C 3.569980 3.057530 -0.969190 0
M  V30 21 C 2.618690 2.536190 -1.848890 0
M  V30 22 C 1.591660 1.743940 -1.344140 0
M  V30 23 C 0.470560 1.238610 -2.228400 0
M  V30 24 C 0.470040 -1.239110 -2.228370 0
M  V30 25 C 1.591530 -1.744210 -1.344490 0
M  V30 26 C 2.618790 -2.535980 -1.849500 0
M  V30 27 C 3.570360 -3.057150 -0.969990 0
M  V30 28 C 3.470400 -2.766730 0.391940 0
M  V30 29 C 2.427490 -1.956320 0.824800 0
M  V30 30 H -1.360230 2.539020 1.902720 0
M  V30 31 H -3.230980 4.100110 1.285070 0
M  V30 32 H -4.410810 3.747730 -0.901980 0
M  V30 33 H -3.688340 1.857920 -2.380490 0
M  V30 34 H -2.023530 0.000300 -2.795220 0
M  V30 35 H -3.689220 -1.856520 -2.380540 0
M  V30 36 H -4.412560 -3.746060 -0.902120 0
M  V30 37 H -3.232850 -4.099130 1.284880 0
M  V30 38 H -1.361340 -2.538980 1.902580 0
M  V30 39 H 2.305720 1.684030 1.867500 0
M  V30 40 H 4.186750 3.153160 1.109010 0
M  V30 41 H 4.377210 3.679680 -1.343290 0
M  V30 42 H 2.669870 2.747170 -2.912530 0
M  V30 43 H 2.669940 -2.746730 -2.913180 0
M  V30 44 H 4.377790 -3.678930 -1.344300 0
M  V30 45 H 4.187350 -3.153020 1.108130 0
M  V30 46 H 2.305880 -1.684690 1.867110 0
M  V30 47 H 0.828160 1.079870 -3.251370 0
M  V30 48 H -0.293930 2.019680 -2.282170 0
M  V30 49 H 0.827050 -1.080830 -3.251620 0
M  V30 50 H -0.294590 -2.020090 -2.281340 0
M  V30 51 Br 0.140060 -0.000470 2.930420 0
M  V30 END ATOM
M  V30 BEGIN BOND
M  V30 1 1 49 24
M  V30 2 1 47 23
M  V30 3 1 43 26
M  V30 4 1 42 21
M  V30 5 1 34 12
M  V30 6 1 35 14
M  V30 7 1 33 10
M  V30 8 1 48 23
M  V30 9 1 50 24
M  V30 10 1 23 2
M  V30 11 1 23 22
M  V30 12 1 24 2
M  V30 13 1 24 25
M  V30 14 1 26 25
M  V30 15 2 26 27
M  V30 16 1 21 22
M  V30 17 2 21 20
M  V30 18 1 12 2
M  V30 19 1 12 13
M  V30 20 1 12 11
M  V30 21 1 14 13
M  V30 22 2 14 15
M  V30 23 1 10 11
M  V30 24 2 10 9
M  V30 25 2 25 6
M  V30 26 1 44 27
M  V30 27 2 22 5
M  V30 28 1 41 20
M  V30 29 2 13 4
M  V30 30 2 11 3
M  V30 31 1 27 28
M  V30 32 1 20 19
M  V30 33 1 36 15
M  V30 34 1 32 9
M  V30 35 1 15 16
M  V30 36 1 9 8
M  V30 37 1 6 29
M  V30 38 1 5 18
M  V30 39 1 4 17
M  V30 40 1 3 7
M  V30 41 2 28 29
M  V30 42 1 28 45
M  V30 43 2 19 18
M  V30 44 1 19 40
M  V30 45 1 1 51
M  V30 46 2 16 17
M  V30 47 1 16 37
M  V30 48 2 8 7
M  V30 49 1 8 31
M  V30 50 1 29 46
M  V30 51 1 18 39
M  V30 52 1 17 38
M  V30 53 1 7 30
M  V30 54 9 2 1
M  V30 55 9 3 1
M  V30 56 9 4 1
M  V30 57 9 5 1
M  V30 58 9 6 1
M  V30 END BOND
M  V30 END CTAB
M  END
