
     RDKit          3D

  0  0  0  0  0  0  0  0  0  0999 V3000
M  V30 BEGIN CTAB
M  V30 COUNTS 50 53 0 0 0
M  V30 BEGIN ATOM
M  V30 1 Fe -0.085840 -0.035950 0.541240 0 CHG=2 VAL=5
M  V30 2 N -2.074040 0.684470 -0.151790 0
M  V30 3 N 0.574680 1.924590 -0.090270 0
M  V30 4 N 1.834210 -0.998920 0.117810 0
M  V30 5 N -0.866590 -1.845750 -0.378910 0
M  V30 6 C 1.264980 2.589960 1.057720 0
M  V30 7 C -0.666050 2.706550 -0.424060 0
M  V30 8 C -1.727070 1.819430 -1.058270 0
M  V30 9 C -2.878850 1.146400 1.016340 0
M  V30 10 O -0.146010 0.010950 2.309870 0
M  V30 11 C 1.462810 1.874390 -1.303350 0
M  V30 12 C 2.726180 1.022250 -1.180390 0
M  V30 13 C 2.498910 -0.488040 -1.126870 0
M  V30 14 C 2.738620 -0.854910 1.299110 0
M  V30 15 C -1.803590 -1.402310 -1.451940 0
M  V30 16 C -2.800320 -0.392580 -0.896680 0
M  V30 17 C -1.567720 -2.611650 0.693590 0
M  V30 18 C 0.273260 -2.641550 -0.927200 0
M  V30 19 C 1.498160 -2.452160 -0.042460 0
M  V30 20 H -2.114640 -3.458830 0.262870 0
M  V30 21 H -0.836560 -2.984590 1.411440 0
M  V30 22 H -2.265540 -1.966880 1.228290 0
M  V30 23 H 2.208670 -1.177070 2.195070 0
M  V30 24 H 3.643610 -1.457700 1.157590 0
M  V30 25 H 3.026140 0.185790 1.431250 0
M  V30 26 H 1.515680 3.625380 0.798970 0
M  V30 27 H 0.608290 2.567930 1.927560 0
M  V30 28 H 2.177720 2.055900 1.310970 0
M  V30 29 H -0.413610 3.535680 -1.094960 0
M  V30 30 H -1.040270 3.148630 0.500290 0
M  V30 31 H -2.318770 1.879150 1.596030 0
M  V30 32 H -3.825380 1.587530 0.681720 0
M  V30 33 H -3.087640 0.295170 1.665860 0
M  V30 34 H -1.363250 1.397250 -1.999990 0
M  V30 35 H -2.623660 2.409230 -1.289050 0
M  V30 36 H -3.399570 0.035760 -1.708090 0
M  V30 37 H -3.499630 -0.874400 -0.211930 0
M  V30 38 H 0.006420 -3.703130 -0.986710 0
M  V30 39 H 0.467270 -2.302900 -1.947040 0
M  V30 40 H 2.357850 -2.995410 -0.454270 0
M  V30 41 H 1.310800 -2.852060 0.957110 0
M  V30 42 H 1.877670 -0.779110 -1.979120 0
M  V30 43 H 3.460220 -1.008060 -1.234140 0
M  V30 44 H 3.309360 1.211870 -2.089270 0
M  V30 45 H 3.363280 1.365250 -0.361130 0
M  V30 46 H 0.854510 1.501880 -2.135150 0
M  V30 47 H 1.747220 2.906540 -1.546790 0
M  V30 48 H -1.197000 -0.944690 -2.240830 0
M  V30 49 H -2.326930 -2.260820 -1.892280 0
M  V30 50 H -0.615920 -0.341760 3.083240 0
M  V30 END ATOM
M  V30 BEGIN BOND
M  V30 1 1 48 15
M  V30 2 1 46 11
M  V30 3 1 44 12
M  V30 4 1 34 8
M  V30 5 1 42 13
M  V30 6 1 39 18
M  V30 7 1 49 15
M  V30 8 1 36 16
M  V30 9 1 47 11
M  V30 10 1 15 16
M  V30 11 1 15 5
M  V30 12 1 11 12
M  V30 13 1 11 3
M  V30 14 1 35 8
M  V30 15 1 43 13
M  V30 16 1 12 13
M  V30 17 1 12 45
M  V30 18 1 13 4
M  V30 19 1 29 7
M  V30 20 1 8 7
M  V30 21 1 8 2
M  V30 22 1 38 18
M  V30 23 1 18 5
M  V30 24 1 18 19
M  V30 25 1 16 37
M  V30 26 1 16 2
M  V30 27 1 40 19
M  V30 28 1 7 3
M  V30 29 1 7 30
M  V30 30 1 5 17
M  V30 31 1 2 9
M  V30 32 1 3 6
M  V30 33 1 19 4
M  V30 34 1 19 41
M  V30 35 1 4 14
M  V30 36 1 20 17
M  V30 37 1 1 10
M  V30 38 1 32 9
M  V30 39 1 17 22
M  V30 40 1 17 21
M  V30 41 1 26 6
M  V30 42 1 9 31
M  V30 43 1 9 33
M  V30 44 1 6 28
M  V30 45 1 6 27
M  V30 46 1 24 14
M  V30 47 1 14 25
M  V30 48 1 14 23
M  V30 49 1 10 50
M  V30 50 9 2 1
M  V30 51 9 3 1
M  V30 52 9 4 1
M  V30 53 9 5 1
M  V30 END BOND
M  V30 END CTAB
M  END
