
     RDKit          3D

  0  0  0  0  0  0  0  0  0  0999 V3000
M  V30 BEGIN CTAB
M  V30 COUNTS 66 69 0 0 0
M  V30 BEGIN ATOM
M  V30 1 Fe -0.188250 -0.079120 0.025640 0 CHG=1 VAL=6
M  V30 2 N -0.377520 -1.626370 1.373950 0
M  V30 3 N -0.638820 1.193190 1.646200 0
M  V30 4 N -0.129360 1.349170 -1.482010 0
M  V30 5 N -0.165400 -1.525340 -1.447940 0
M  V30 6 C 0.532150 1.935330 2.186870 0
M  V30 7 C -1.163520 0.289320 2.746140 0
M  V30 8 C -1.446410 -1.154870 2.304410 0
M  V30 9 C 0.853660 -1.919800 2.154370 0
M  V30 10 O 1.545980 0.086270 0.449550 0
M  V30 11 O 2.573610 -0.177690 -0.525940 0
M  V30 12 C 3.888340 0.096600 0.042470 0
M  V30 13 C 4.148940 -0.815690 1.242990 0
M  V30 14 C -1.692730 2.196690 1.253640 0
M  V30 15 C -1.407760 3.009860 -0.017580 0
M  V30 16 C -1.305090 2.277070 -1.365060 0
M  V30 17 C 1.109140 2.176790 -1.510920 0
M  V30 18 C -1.055070 -2.600420 -0.889590 0
M  V30 19 C -0.741800 -2.866180 0.591400 0
M  V30 20 C 1.128780 -2.138150 -1.843360 0
M  V30 21 C -0.783510 -0.823450 -2.618670 0
M  V30 22 C -0.166750 0.564180 -2.771120 0
M  V30 23 C 4.808210 -0.258580 -1.130360 0
M  V30 24 C 4.021560 1.572900 0.425720 0
M  V30 25 H 0.946470 -2.950790 -2.557960 0
M  V30 26 H 1.778630 -1.391720 -2.288500 0
M  V30 27 H 1.636040 -2.526240 -0.961260 0
M  V30 28 H 1.967530 1.521820 -1.608880 0
M  V30 29 H 1.063470 2.882570 -2.350300 0
M  V30 30 H 1.214390 2.730830 -0.582320 0
M  V30 31 H 0.235920 2.519690 3.067330 0
M  V30 32 H 1.321030 1.235440 2.452020 0
M  V30 33 H 0.928070 2.607640 1.429240 0
M  V30 34 H -2.075940 0.717550 3.172770 0
M  V30 35 H -0.419540 0.284220 3.544930 0
M  V30 36 H 1.159820 -1.042240 2.718670 0
M  V30 37 H 0.664890 -2.751900 2.844830 0
M  V30 38 H 1.662810 -2.171680 1.473960 0
M  V30 39 H -2.401210 -1.229830 1.795750 0
M  V30 40 H -1.480020 -1.799080 3.193860 0
M  V30 41 H -1.595720 -3.366330 1.059870 0
M  V30 42 H 0.106010 -3.549710 0.666040 0
M  V30 43 H -0.620610 -1.398400 -3.539590 0
M  V30 44 H -1.853810 -0.749910 -2.447180 0
M  V30 45 H -0.705790 1.131110 -3.539630 0
M  V30 46 H 0.866150 0.465710 -3.109340 0
M  V30 47 H -2.208860 1.706630 -1.559710 0
M  V30 48 H -1.207930 3.033370 -2.156670 0
M  V30 49 H -2.253240 3.701710 -0.117420 0
M  V30 50 H -0.534180 3.652310 0.129860 0
M  V30 51 H -2.634670 1.667200 1.149030 0
M  V30 52 H -1.802750 2.901820 2.089590 0
M  V30 53 H -2.086190 -2.290050 -1.010710 0
M  V30 54 H -0.915130 -3.530480 -1.454840 0
M  V30 55 H 5.180170 -0.695600 1.589690 0
M  V30 56 H 3.480570 -0.571100 2.072080 0
M  V30 57 H 4.002650 -1.865150 0.965730 0
M  V30 58 H 5.018320 1.763150 0.836120 0
M  V30 59 H 3.886050 2.221150 -0.445390 0
M  V30 60 H 3.282870 1.843420 1.183670 0
M  V30 61 H 5.851290 -0.089950 -0.845840 0
M  V30 62 H 4.693540 -1.310380 -1.411410 0
M  V30 63 H 4.586360 0.364830 -2.002810 0
M  V30 64 N -2.144360 -0.160280 -0.210330 0
M  V30 65 C -3.331810 -0.193050 -0.280140 0
M  V30 66 S -4.936840 -0.224190 -0.361700 0
M  V30 END ATOM
M  V30 BEGIN BOND
M  V30 1 1 45 22
M  V30 2 1 43 21
M  V30 3 1 46 22
M  V30 4 1 22 21
M  V30 5 1 22 4
M  V30 6 1 21 44
M  V30 7 1 21 5
M  V30 8 1 25 20
M  V30 9 1 29 17
M  V30 10 1 26 20
M  V30 11 1 48 16
M  V30 12 1 63 23
M  V30 13 1 20 5
M  V30 14 1 20 27
M  V30 15 1 28 17
M  V30 16 1 47 16
M  V30 17 1 17 4
M  V30 18 1 17 30
M  V30 19 1 4 16
M  V30 20 1 54 18
M  V30 21 1 5 18
M  V30 22 1 62 23
M  V30 23 1 16 15
M  V30 24 1 23 61
M  V30 25 1 23 12
M  V30 26 1 53 18
M  V30 27 1 18 19
M  V30 28 1 11 12
M  V30 29 1 11 10
M  V30 30 1 59 24
M  V30 31 2 66 65
M  V30 32 2 65 64
M  V30 33 1 64 1
M  V30 34 1 49 15
M  V30 35 1 15 50
M  V30 36 1 15 14
M  V30 37 1 1 10
M  V30 38 1 12 24
M  V30 39 1 12 13
M  V30 40 1 24 58
M  V30 41 1 24 60
M  V30 42 1 19 42
M  V30 43 1 19 41
M  V30 44 1 19 2
M  V30 45 1 57 13
M  V30 46 1 51 14
M  V30 47 1 13 55
M  V30 48 1 13 56
M  V30 49 1 14 3
M  V30 50 1 14 52
M  V30 51 1 2 9
M  V30 52 1 2 8
M  V30 53 1 33 6
M  V30 54 1 38 9
M  V30 55 1 3 6
M  V30 56 1 3 7
M  V30 57 1 39 8
M  V30 58 1 9 36
M  V30 59 1 9 37
M  V30 60 1 6 32
M  V30 61 1 6 31
M  V30 62 1 8 7
M  V30 63 1 8 40
M  V30 64 1 7 34
M  V30 65 1 7 35
M  V30 66 9 2 1
M  V30 67 9 3 1
M  V30 68 9 4 1
M  V30 69 9 5 1
M  V30 END BOND
M  V30 END CTAB
M  END
