
     RDKit          3D

  0  0  0  0  0  0  0  0  0  0999 V3000
M  V30 BEGIN CTAB
M  V30 COUNTS 64 67 0 0 0
M  V30 BEGIN ATOM
M  V30 1 Fe 0.539270 0.187700 -0.022260 0 CHG=1 VAL=6
M  V30 2 N 0.201390 1.717200 1.275860 0
M  V30 3 N 1.310440 -0.895510 1.612940 0
M  V30 4 N 1.059470 -1.199680 -1.501720 0
M  V30 5 N 0.251780 1.575960 -1.523820 0
M  V30 6 C 0.461800 -2.008500 2.106090 0
M  V30 7 C 1.431200 0.132140 2.716230 0
M  V30 8 C 1.356600 1.577130 2.213270 0
M  V30 9 C -1.079770 1.630790 2.023960 0
M  V30 10 O -1.054150 -0.608400 0.205990 0
M  V30 11 O -2.254940 0.061770 -0.246760 0
M  V30 12 C -3.425870 -0.726200 0.102190 0
M  V30 13 C -3.565560 -0.855250 1.621770 0
M  V30 14 C 2.679520 -1.412240 1.275560 0
M  V30 15 C 2.760610 -2.307650 0.035960 0
M  V30 16 C 2.477360 -1.640650 -1.314080 0
M  V30 17 C 0.169460 -2.384340 -1.593190 0
M  V30 18 C 0.790670 2.830750 -0.905610 0
M  V30 19 C 0.212110 3.005460 0.497900 0
M  V30 20 C -1.104360 1.823970 -2.071530 0
M  V30 21 C 1.154110 1.060740 -2.602080 0
M  V30 22 C 0.913610 -0.430970 -2.786900 0
M  V30 23 C -4.558780 0.121850 -0.485550 0
M  V30 24 C -3.361230 -2.101810 -0.565930 0
M  V30 25 H -1.046890 2.558730 -2.885440 0
M  V30 26 H -1.538270 0.894910 -2.433650 0
M  V30 27 H -1.759000 2.192700 -1.285600 0
M  V30 28 H -0.853360 -2.049650 -1.737550 0
M  V30 29 H 0.481570 -3.026260 -2.427910 0
M  V30 30 H 0.202040 -2.957270 -0.670120 0
M  V30 31 H 0.898520 -2.455100 3.009040 0
M  V30 32 H -0.536560 -1.632550 2.317680 0
M  V30 33 H 0.368510 -2.775800 1.340540 0
M  V30 34 H 2.370310 -0.015740 3.260670 0
M  V30 35 H 0.626540 -0.052660 3.429610 0
M  V30 36 H -1.134370 0.692530 2.569790 0
M  V30 37 H -1.162090 2.472770 2.723250 0
M  V30 38 H -1.900480 1.636820 1.311840 0
M  V30 39 H 2.257170 1.840660 1.666360 0
M  V30 40 H 1.233050 2.256380 3.067840 0
M  V30 41 H 0.772870 3.771570 1.045350 0
M  V30 42 H -0.821900 3.349560 0.435510 0
M  V30 43 H 0.966660 1.587970 -3.546410 0
M  V30 44 H 2.179840 1.244740 -2.294230 0
M  V30 45 H 1.594090 -0.835960 -3.546830 0
M  V30 46 H -0.104280 -0.596370 -3.145230 0
M  V30 47 H 3.107100 -0.759880 -1.419010 0
M  V30 48 H 2.720940 -2.347970 -2.119980 0
M  V30 49 H 3.796550 -2.665790 -0.010870 0
M  V30 50 H 2.154510 -3.210470 0.161490 0
M  V30 51 H 3.315370 -0.543070 1.128610 0
M  V30 52 H 3.046030 -1.977300 2.144740 0
M  V30 53 H 1.869650 2.733270 -0.852930 0
M  V30 54 H 0.536430 3.702140 -1.522940 0
M  V30 55 H -4.472700 -1.415670 1.869620 0
M  V30 56 H -2.711330 -1.390840 2.043890 0
M  V30 57 H -3.635640 0.129170 2.094780 0
M  V30 58 H -4.288100 -2.655440 -0.384690 0
M  V30 59 H -3.234520 -1.994530 -1.648820 0
M  V30 60 H -2.528310 -2.685940 -0.166710 0
M  V30 61 H -5.522480 -0.358320 -0.289780 0
M  V30 62 H -4.573940 1.118910 -0.032870 0
M  V30 63 H -4.441140 0.230490 -1.568530 0
M  V30 64 F 2.287650 0.800550 -0.152970 0
M  V30 END ATOM
M  V30 BEGIN BOND
M  V30 1 1 45 22
M  V30 2 1 43 21
M  V30 3 1 46 22
M  V30 4 1 25 20
M  V30 5 1 22 21
M  V30 6 1 22 4
M  V30 7 1 21 44
M  V30 8 1 21 5
M  V30 9 1 26 20
M  V30 10 1 29 17
M  V30 11 1 48 16
M  V30 12 1 20 5
M  V30 13 1 20 27
M  V30 14 1 28 17
M  V30 15 1 59 24
M  V30 16 1 17 4
M  V30 17 1 17 30
M  V30 18 1 63 23
M  V30 19 1 5 18
M  V30 20 1 54 18
M  V30 21 1 4 16
M  V30 22 1 47 16
M  V30 23 1 16 15
M  V30 24 1 18 53
M  V30 25 1 18 19
M  V30 26 1 24 58
M  V30 27 1 24 60
M  V30 28 1 24 12
M  V30 29 1 23 61
M  V30 30 1 23 62
M  V30 31 1 23 12
M  V30 32 1 11 12
M  V30 33 1 11 10
M  V30 34 1 64 1
M  V30 35 1 1 10
M  V30 36 1 49 15
M  V30 37 1 15 50
M  V30 38 1 15 14
M  V30 39 1 12 13
M  V30 40 1 42 19
M  V30 41 1 19 41
M  V30 42 1 19 2
M  V30 43 1 51 14
M  V30 44 1 14 3
M  V30 45 1 14 52
M  V30 46 1 2 9
M  V30 47 1 2 8
M  V30 48 1 38 9
M  V30 49 1 33 6
M  V30 50 1 3 6
M  V30 51 1 3 7
M  V30 52 1 13 55
M  V30 53 1 13 56
M  V30 54 1 13 57
M  V30 55 1 39 8
M  V30 56 1 9 36
M  V30 57 1 9 37
M  V30 58 1 6 32
M  V30 59 1 6 31
M  V30 60 1 8 7
M  V30 61 1 8 40
M  V30 62 1 7 34
M  V30 63 1 7 35
M  V30 64 9 2 1
M  V30 65 9 3 1
M  V30 66 9 4 1
M  V30 67 9 5 1
M  V30 END BOND
M  V30 END CTAB
M  END
