
     RDKit          3D

  0  0  0  0  0  0  0  0  0  0999 V3000
M  V30 BEGIN CTAB
M  V30 COUNTS 64 67 0 0 0
M  V30 BEGIN ATOM
M  V30 1 Fe -0.254440 -0.076590 0.015090 0 CHG=1 VAL=6
M  V30 2 N -0.394660 -1.534970 1.457780 0
M  V30 3 N -0.656440 1.284810 1.571680 0
M  V30 4 N -0.210700 1.240140 -1.583470 0
M  V30 5 N -0.225410 -1.601470 -1.368450 0
M  V30 6 C 0.555510 1.981540 2.091290 0
M  V30 7 C -1.238170 0.461030 2.712770 0
M  V30 8 C -1.434910 -1.038480 2.409000 0
M  V30 9 C 0.865450 -1.758880 2.218010 0
M  V30 10 O 1.481230 0.142020 0.415620 0
M  V30 11 O 2.537690 -0.275200 -0.471570 0
M  V30 12 C 3.839360 0.109560 0.069450 0
M  V30 13 C 4.090410 -0.584730 1.409530 0
M  V30 14 C -1.628720 2.356740 1.140320 0
M  V30 15 C -1.280750 3.083380 -0.166230 0
M  V30 16 C -1.295090 2.278600 -1.475320 0
M  V30 17 C 1.088790 1.963910 -1.702290 0
M  V30 18 C -1.057000 -2.683720 -0.734630 0
M  V30 19 C -0.746310 -2.834040 0.763740 0
M  V30 20 C 1.083750 -2.187880 -1.759980 0
M  V30 21 C -0.888970 -1.009850 -2.576590 0
M  V30 22 C -0.358510 0.399950 -2.836740 0
M  V30 23 C 4.781430 -0.427320 -1.013700 0
M  V30 24 C 3.958060 1.629620 0.203000 0
M  V30 25 H 0.912400 -3.034430 -2.436500 0
M  V30 26 H 1.698100 -1.440360 -2.252550 0
M  V30 27 H 1.618720 -2.523620 -0.873640 0
M  V30 28 H 1.891330 1.242340 -1.807570 0
M  V30 29 H 1.057340 2.633710 -2.570850 0
M  V30 30 H 1.279350 2.544530 -0.804590 0
M  V30 31 H 0.279390 2.628230 2.933250 0
M  V30 32 H 1.299970 1.257510 2.411160 0
M  V30 33 H 0.998630 2.588370 1.305420 0
M  V30 34 H -2.204780 0.881140 3.002000 0
M  V30 35 H -0.572320 0.578360 3.570510 0
M  V30 36 H 1.145840 -0.853650 2.750660 0
M  V30 37 H 0.715110 -2.571240 2.940230 0
M  V30 38 H 1.669160 -2.009700 1.531410 0
M  V30 39 H -2.407840 -1.208370 1.961330 0
M  V30 40 H -1.376870 -1.605030 3.348360 0
M  V30 41 H -1.601900 -3.298910 1.262900 0
M  V30 42 H 0.105150 -3.504340 0.895940 0
M  V30 43 H -0.699250 -1.636910 -3.457520 0
M  V30 44 H -1.959310 -0.982740 -2.396430 0
M  V30 45 H -1.014270 0.911340 -3.549460 0
M  V30 46 H 0.629330 0.339980 -3.297050 0
M  V30 47 H -2.251840 1.778340 -1.598830 0
M  V30 48 H -1.161400 2.979070 -2.311480 0
M  V30 49 H -2.053080 3.853630 -0.284670 0
M  V30 50 H -0.342680 3.638000 -0.065360 0
M  V30 51 H -2.606290 1.894370 1.047090 0
M  V30 52 H -1.678370 3.101200 1.946880 0
M  V30 53 H -2.102090 -2.430800 -0.872720 0
M  V30 54 H -0.864190 -3.639800 -1.237120 0
M  V30 55 H 5.109730 -0.379210 1.751270 0
M  V30 56 H 3.398080 -0.224550 2.174530 0
M  V30 57 H 3.977800 -1.669210 1.309810 0
M  V30 58 H 4.950710 1.890860 0.583120 0
M  V30 59 H 3.826900 2.124250 -0.763820 0
M  V30 60 H 3.214330 2.016900 0.903060 0
M  V30 61 H 5.818390 -0.209020 -0.740790 0
M  V30 62 H 4.674030 -1.511300 -1.121390 0
M  V30 63 H 4.574290 0.044570 -1.979680 0
M  V30 64 Br -3.059400 -0.208360 -0.234400 0
M  V30 END ATOM
M  V30 BEGIN BOND
M  V30 1 1 45 22
M  V30 2 1 43 21
M  V30 3 1 46 22
M  V30 4 1 22 21
M  V30 5 1 22 4
M  V30 6 1 21 44
M  V30 7 1 21 5
M  V30 8 1 29 17
M  V30 9 1 25 20
M  V30 10 1 48 16
M  V30 11 1 26 20
M  V30 12 1 63 23
M  V30 13 1 28 17
M  V30 14 1 20 5
M  V30 15 1 20 27
M  V30 16 1 17 4
M  V30 17 1 17 30
M  V30 18 1 47 16
M  V30 19 1 4 16
M  V30 20 1 16 15
M  V30 21 1 5 18
M  V30 22 1 54 18
M  V30 23 1 62 23
M  V30 24 1 23 61
M  V30 25 1 23 12
M  V30 26 1 53 18
M  V30 27 1 59 24
M  V30 28 1 18 19
M  V30 29 1 11 12
M  V30 30 1 11 10
M  V30 31 1 49 15
M  V30 32 1 64 1
M  V30 33 1 15 50
M  V30 34 1 15 14
M  V30 35 1 1 10
M  V30 36 1 12 24
M  V30 37 1 12 13
M  V30 38 1 24 58
M  V30 39 1 24 60
M  V30 40 1 19 42
M  V30 41 1 19 41
M  V30 42 1 19 2
M  V30 43 1 51 14
M  V30 44 1 14 3
M  V30 45 1 14 52
M  V30 46 1 33 6
M  V30 47 1 57 13
M  V30 48 1 13 55
M  V30 49 1 13 56
M  V30 50 1 2 9
M  V30 51 1 2 8
M  V30 52 1 38 9
M  V30 53 1 3 6
M  V30 54 1 3 7
M  V30 55 1 39 8
M  V30 56 1 6 32
M  V30 57 1 6 31
M  V30 58 1 9 36
M  V30 59 1 9 37
M  V30 60 1 8 7
M  V30 61 1 8 40
M  V30 62 1 7 34
M  V30 63 1 7 35
M  V30 64 9 2 1
M  V30 65 9 3 1
M  V30 66 9 4 1
M  V30 67 9 5 1
M  V30 END BOND
M  V30 END CTAB
M  END
