
     RDKit          3D

  0  0  0  0  0  0  0  0  0  0999 V3000
M  V30 BEGIN CTAB
M  V30 COUNTS 52 57 0 0 0
M  V30 BEGIN ATOM
M  V30 1 Fe 0.032640 0.321650 -0.675340 0 CHG=3 VAL=5
M  V30 2 N 1.861760 0.959610 -0.238420 0 RAD=2 VAL=2
M  V30 3 N 0.763640 -1.545120 -0.028570 0
M  V30 4 N -1.834030 -0.310720 -0.947560 0
M  V30 5 C 2.334280 2.209050 -0.366640 0
M  V30 6 C 3.694420 2.514510 -0.204890 0
M  V30 7 C 4.593950 1.495870 0.081480 0
M  V30 8 C 4.120040 0.168610 0.214130 0
M  V30 9 C 4.966140 -0.937660 0.500120 0
M  V30 10 C 4.434900 -2.224510 0.616150 0
M  V30 11 C 3.057950 -2.444470 0.452160 0
M  V30 12 C 2.206240 -1.379160 0.162400 0
M  V30 13 C 2.724930 -0.065260 0.045070 0 RAD=2 VAL=3
M  V30 14 H 1.611750 2.977980 -0.611850 0
M  V30 15 H 4.020800 3.543300 -0.317640 0
M  V30 16 H 5.653510 1.708600 0.198660 0
M  V30 17 H 6.032570 -0.773010 0.628740 0
M  V30 18 H 5.088930 -3.063130 0.833940 0
M  V30 19 H 2.671430 -3.453840 0.549070 0
M  V30 20 C -2.332820 -0.684340 -2.134310 0
M  V30 21 C -3.699430 -0.943610 -2.317750 0
M  V30 22 C -4.575140 -0.788140 -1.246070 0
M  V30 23 C -4.065090 -0.383040 0.009680 0
M  V30 24 C -4.873850 -0.179530 1.161620 0
M  V30 25 C -4.297410 0.241490 2.370330 0
M  V30 26 C -2.917810 0.468540 2.464400 0
M  V30 27 C -2.099920 0.283940 1.345400 0
M  V30 28 C -2.665650 -0.149750 0.118630 0
M  V30 29 H -1.619930 -0.772960 -2.945770 0
M  V30 30 H -4.054500 -1.251640 -3.296010 0
M  V30 31 H -5.639930 -0.968030 -1.370800 0
M  V30 32 H -5.945460 -0.351190 1.100580 0
M  V30 33 H -4.926670 0.395340 3.241710 0
M  V30 34 H -2.501130 0.795760 3.411220 0
M  V30 35 N -0.655100 0.518120 1.359750 0
M  V30 36 C 0.052850 -0.584650 2.119880 0
M  V30 37 C 0.071950 -1.841030 1.277610 0
M  V30 38 H 1.066420 -0.228090 2.321050 0
M  V30 39 H -0.440750 -0.756990 3.081610 0
M  V30 40 H 0.581860 -2.657670 1.799140 0
M  V30 41 H -0.940000 -2.176870 1.037640 0
M  V30 42 C -0.333650 1.848050 1.989830 0
M  V30 43 H -0.947790 2.622980 1.535150 0
M  V30 44 H 0.719390 2.060460 1.809600 0
M  V30 45 H -0.506970 1.808290 3.068860 0
M  V30 46 C 0.472620 -2.623710 -1.031570 0
M  V30 47 H 1.029490 -2.422160 -1.944810 0
M  V30 48 H -0.597050 -2.614380 -1.240600 0
M  V30 49 H 0.745230 -3.602650 -0.627570 0
M  V30 50 O 0.519740 -0.109950 -2.288010 0
M  V30 51 H 0.609400 0.655620 -2.895040 0
M  V30 52 Cl -0.758120 2.334170 -1.193300 0
M  V30 END ATOM
M  V30 BEGIN BOND
M  V30 1 1 30 21
M  V30 2 1 29 20
M  V30 3 1 51 50
M  V30 4 1 21 20
M  V30 5 2 21 22
M  V30 6 1 50 1
M  V30 7 2 20 4
M  V30 8 1 47 46
M  V30 9 1 31 22
M  V30 10 1 22 23
M  V30 11 1 48 46
M  V30 12 1 52 1
M  V30 13 1 46 49
M  V30 14 1 46 3
M  V30 15 1 4 28
M  V30 16 1 14 5
M  V30 17 1 5 2
M  V30 18 2 5 6
M  V30 19 1 15 6
M  V30 20 1 2 13
M  V30 21 1 6 7
M  V30 22 1 3 12
M  V30 23 1 3 37
M  V30 24 2 23 28
M  V30 25 1 23 24
M  V30 26 1 13 12
M  V30 27 1 13 8
M  V30 28 1 7 16
M  V30 29 2 7 8
M  V30 30 1 28 27
M  V30 31 2 12 11
M  V30 32 1 8 9
M  V30 33 1 11 19
M  V30 34 1 11 10
M  V30 35 2 9 10
M  V30 36 1 9 17
M  V30 37 1 10 18
M  V30 38 1 41 37
M  V30 39 1 32 24
M  V30 40 2 24 25
M  V30 41 1 37 40
M  V30 42 1 37 36
M  V30 43 1 27 35
M  V30 44 2 27 26
M  V30 45 1 35 42
M  V30 46 1 35 36
M  V30 47 1 43 42
M  V30 48 1 44 42
M  V30 49 1 42 45
M  V30 50 1 36 38
M  V30 51 1 36 39
M  V30 52 1 25 26
M  V30 53 1 25 33
M  V30 54 1 26 34
M  V30 55 9 3 1
M  V30 56 9 4 1
M  V30 57 9 35 1
M  V30 END BOND
M  V30 END CTAB
M  END
