
     RDKit          3D

  0  0  0  0  0  0  0  0  0  0999 V3000
M  V30 BEGIN CTAB
M  V30 COUNTS 54 59 0 0 0
M  V30 BEGIN ATOM
M  V30 1 Fe 0.089070 0.359540 -0.651200 0 CHG=3 VAL=5
M  V30 2 N 2.005180 0.905380 0.154700 0 RAD=2 VAL=2
M  V30 3 N 1.131330 -1.620390 -0.576380 0
M  V30 4 N -1.817590 -0.539040 -0.963780 0
M  V30 5 C 2.380800 2.144710 0.498110 0
M  V30 6 C 3.709910 2.486700 0.789470 0
M  V30 7 C 4.689820 1.508420 0.695430 0
M  V30 8 C 4.327260 0.192700 0.319100 0
M  V30 9 C 5.272460 -0.858680 0.177580 0
M  V30 10 C 4.858410 -2.131660 -0.217390 0
M  V30 11 C 3.503560 -2.391130 -0.474830 0
M  V30 12 C 2.544710 -1.387220 -0.332060 0
M  V30 13 C 2.950000 -0.075490 0.061560 0 RAD=2 VAL=3
M  V30 14 H 1.591060 2.886810 0.536090 0
M  V30 15 H 3.954410 3.505190 1.071760 0
M  V30 16 H 5.730860 1.745100 0.898950 0
M  V30 17 H 6.322080 -0.663000 0.379100 0
M  V30 18 H 5.586150 -2.930330 -0.320780 0
M  V30 19 H 3.209450 -3.391630 -0.774230 0
M  V30 20 C -2.351340 -0.647410 -2.190200 0
M  V30 21 C -3.658990 -1.108000 -2.407220 0
M  V30 22 C -4.440780 -1.452230 -1.312530 0
M  V30 23 C -3.903890 -1.334110 -0.006860 0
M  V30 24 C -4.653010 -1.615700 1.167190 0
M  V30 25 C -4.081860 -1.436530 2.431490 0
M  V30 26 C -2.761990 -0.983810 2.558540 0
M  V30 27 C -1.981040 -0.727300 1.426160 0
M  V30 28 C -2.559700 -0.879710 0.126020 0
M  V30 29 H -1.707530 -0.343000 -3.008860 0
M  V30 30 H -4.042750 -1.178650 -3.419560 0
M  V30 31 H -5.460880 -1.802170 -1.447930 0
M  V30 32 H -5.679450 -1.960760 1.076110 0
M  V30 33 H -4.660760 -1.660310 3.322120 0
M  V30 34 H -2.341060 -0.865190 3.551460 0
M  V30 35 N -0.599030 -0.313050 1.507780 0
M  V30 36 C 0.321550 -1.480240 1.779180 0
M  V30 37 C 0.484270 -2.369250 0.561370 0
M  V30 38 H 1.283630 -1.054700 2.075120 0
M  V30 39 H -0.058400 -2.065650 2.624170 0
M  V30 40 H 1.081830 -3.251110 0.817640 0
M  V30 41 H -0.485160 -2.719740 0.199080 0
M  V30 42 C -0.387580 0.745540 2.537060 0
M  V30 43 H -1.139010 1.525270 2.412590 0
M  V30 44 H 0.604820 1.172270 2.379670 0
M  V30 45 H -0.434930 0.347300 3.556220 0
M  V30 46 C 0.901500 -2.335590 -1.871500 0
M  V30 47 H 1.420720 -1.803490 -2.667280 0
M  V30 48 H -0.170260 -2.324000 -2.074730 0
M  V30 49 H 1.236590 -3.376250 -1.823800 0
M  V30 50 O 0.398080 0.690620 -2.385650 0
M  V30 51 H 0.940390 1.263360 -2.956520 0
M  V30 52 N -0.795970 2.284530 -0.255480 0
M  V30 53 C -1.374510 3.318260 -0.291050 0
M  V30 54 S -2.155450 4.747250 -0.350350 0
M  V30 END ATOM
M  V30 BEGIN BOND
M  V30 1 1 30 21
M  V30 2 1 29 20
M  V30 3 1 51 50
M  V30 4 1 47 46
M  V30 5 1 21 20
M  V30 6 2 21 22
M  V30 7 1 50 1
M  V30 8 2 20 4
M  V30 9 1 48 46
M  V30 10 1 46 49
M  V30 11 1 46 3
M  V30 12 1 31 22
M  V30 13 1 22 23
M  V30 14 1 4 28
M  V30 15 1 19 11
M  V30 16 1 1 52
M  V30 17 1 3 12
M  V30 18 1 3 37
M  V30 19 2 11 12
M  V30 20 1 11 10
M  V30 21 2 54 53
M  V30 22 1 12 13
M  V30 23 1 18 10
M  V30 24 2 53 52
M  V30 25 2 10 9
M  V30 26 2 23 28
M  V30 27 1 23 24
M  V30 28 1 13 2
M  V30 29 1 13 8
M  V30 30 1 28 27
M  V30 31 1 2 5
M  V30 32 1 9 8
M  V30 33 1 9 17
M  V30 34 1 41 37
M  V30 35 2 8 7
M  V30 36 1 5 14
M  V30 37 2 5 6
M  V30 38 1 37 40
M  V30 39 1 37 36
M  V30 40 1 7 6
M  V30 41 1 7 16
M  V30 42 1 6 15
M  V30 43 1 32 24
M  V30 44 2 24 25
M  V30 45 1 27 35
M  V30 46 2 27 26
M  V30 47 1 35 36
M  V30 48 1 35 42
M  V30 49 1 36 38
M  V30 50 1 36 39
M  V30 51 1 44 42
M  V30 52 1 43 42
M  V30 53 1 25 26
M  V30 54 1 25 33
M  V30 55 1 42 45
M  V30 56 1 26 34
M  V30 57 9 3 1
M  V30 58 9 4 1
M  V30 59 9 35 1
M  V30 END BOND
M  V30 END CTAB
M  END
