
     RDKit          3D

  0  0  0  0  0  0  0  0  0  0999 V3000
M  V30 BEGIN CTAB
M  V30 COUNTS 54 59 0 0 0
M  V30 BEGIN ATOM
M  V30 1 Fe 0.025090 0.617190 -0.206100 0 CHG=3 RAD=2 VAL=5
M  V30 2 N 1.902500 0.824900 0.426700 0
M  V30 3 N 0.773700 -1.234200 -0.951900 0
M  V30 4 N -1.812500 0.270000 -0.860500 0
M  V30 5 C 2.385100 1.854400 1.138600 0
M  V30 6 C 3.750000 1.993500 1.434800 0
M  V30 7 C 4.647600 1.038300 0.974200 0
M  V30 8 C 4.164600 -0.064700 0.230800 0
M  V30 9 C 4.999200 -1.102100 -0.268800 0
M  V30 10 C 4.449500 -2.169900 -0.980800 0
M  V30 11 C 3.065300 -2.239400 -1.212400 0
M  V30 12 C 2.224100 -1.230600 -0.745500 0
M  V30 13 C 2.764200 -0.137900 -0.022600 0
M  V30 14 H 1.660600 2.583800 1.481500 0
M  V30 15 H 4.082900 2.847400 2.015700 0
M  V30 16 H 5.710300 1.130000 1.183300 0
M  V30 17 H 6.069700 -1.059600 -0.086800 0
M  V30 18 H 5.094300 -2.957700 -1.357600 0
M  V30 19 H 2.666400 -3.086300 -1.761300 0
M  V30 20 C -2.311000 0.712900 -2.024300 0
M  V30 21 C -3.667000 0.565100 -2.354900 0
M  V30 22 C -4.529300 -0.045400 -1.447400 0
M  V30 23 C -4.020400 -0.509900 -0.211400 0
M  V30 24 C -4.822100 -1.130000 0.786400 0
M  V30 25 C -4.249700 -1.555700 1.993700 0
M  V30 26 C -2.880200 -1.382900 2.235200 0
M  V30 27 C -2.064800 -0.774900 1.274600 0
M  V30 28 C -2.631800 -0.333800 0.047700 0
M  V30 29 H -1.602400 1.201200 -2.684900 0
M  V30 30 H -4.025900 0.938200 -3.308700 0
M  V30 31 H -5.585300 -0.159700 -1.679100 0
M  V30 32 H -5.884800 -1.271500 0.607600 0
M  V30 33 H -4.872600 -2.026200 2.748300 0
M  V30 34 H -2.463800 -1.726600 3.176500 0
M  V30 35 N -0.629800 -0.570300 1.452300 0
M  V30 36 C 0.108600 -1.882900 1.326800 0
M  V30 37 C 0.121200 -2.313800 -0.125000 0
M  V30 38 H 1.124000 -1.709500 1.693400 0
M  V30 39 H -0.352400 -2.645700 1.962900 0
M  V30 40 H 0.649100 -3.264800 -0.249500 0
M  V30 41 H -0.893600 -2.443900 -0.509500 0
M  V30 42 C -0.329200 0.057500 2.783500 0
M  V30 43 H -0.946200 0.945600 2.910800 0
M  V30 44 H 0.723300 0.343000 2.787900 0
M  V30 45 H -0.507800 -0.647700 3.599900 0
M  V30 46 C 0.448900 -1.415300 -2.406500 0
M  V30 47 H 0.947400 -0.636500 -2.980500 0
M  V30 48 H -0.629300 -1.320300 -2.529200 0
M  V30 49 H 0.758500 -2.405600 -2.751300 0
M  V30 50 O 0.396000 1.440000 -1.733500 0 RAD=2 VAL=1
M  V30 51 H 1.295700 1.814300 -1.791200 0
M  V30 52 N -0.585900 2.099500 0.675100 0
M  V30 53 N -0.863600 3.131900 0.041300 0 CHG=1 VAL=4
M  V30 54 N -1.152100 4.106300 -0.470600 0 CHG=-1 VAL=2
M  V30 END ATOM
M  V30 BEGIN BOND
M  V30 1 1 30 21
M  V30 2 1 47 46
M  V30 3 1 49 46
M  V30 4 1 29 20
M  V30 5 1 48 46
M  V30 6 1 46 3
M  V30 7 1 21 20
M  V30 8 2 21 22
M  V30 9 2 20 4
M  V30 10 1 51 50
M  V30 11 1 19 11
M  V30 12 1 31 22
M  V30 13 1 22 23
M  V30 14 1 18 10
M  V30 15 1 11 10
M  V30 16 2 11 12
M  V30 17 2 10 9
M  V30 18 1 3 12
M  V30 19 1 3 37
M  V30 20 1 4 28
M  V30 21 1 12 13
M  V30 22 1 41 37
M  V30 23 2 54 53
M  V30 24 1 9 17
M  V30 25 1 9 8
M  V30 26 1 40 37
M  V30 27 2 23 28
M  V30 28 1 23 24
M  V30 29 1 37 36
M  V30 30 1 13 8
M  V30 31 2 13 2
M  V30 32 2 53 52
M  V30 33 1 28 27
M  V30 34 2 8 7
M  V30 35 1 2 5
M  V30 36 1 32 24
M  V30 37 2 24 25
M  V30 38 1 7 16
M  V30 39 1 7 6
M  V30 40 2 5 6
M  V30 41 1 5 14
M  V30 42 1 27 35
M  V30 43 2 27 26
M  V30 44 1 36 35
M  V30 45 1 36 38
M  V30 46 1 36 39
M  V30 47 1 6 15
M  V30 48 1 35 42
M  V30 49 1 25 26
M  V30 50 1 25 33
M  V30 51 1 26 34
M  V30 52 1 42 44
M  V30 53 1 42 43
M  V30 54 1 42 45
M  V30 55 1 1 52
M  V30 56 9 2 1
M  V30 57 9 3 1
M  V30 58 9 4 1
M  V30 59 9 35 1
M  V30 END BOND
M  V30 END CTAB
M  END
