
     RDKit          3D

  0  0  0  0  0  0  0  0  0  0999 V3000
M  V30 BEGIN CTAB
M  V30 COUNTS 51 58 0 0 0
M  V30 BEGIN ATOM
M  V30 1 Fe -0.074260 -0.000280 -0.893060 0 CHG=2 VAL=6
M  V30 2 N 0.131130 -0.000250 1.375750 0
M  V30 3 N 1.503430 1.418270 -0.516450 0
M  V30 4 N 1.503890 -1.418190 -0.516560 0
M  V30 5 N -1.492400 1.459520 -0.314490 0
M  V30 6 N -1.492420 -1.460030 -0.314390 0
M  V30 7 C 1.881370 2.422790 -1.322560 0
M  V30 8 C 2.916090 3.288460 -0.970330 0
M  V30 9 C 3.560850 3.099810 0.252450 0
M  V30 10 C 3.160550 2.049750 1.089050 0
M  V30 11 C 2.127430 1.225190 0.666100 0
M  V30 12 C 1.630210 -0.000010 1.427390 0
M  V30 13 C 2.127860 -1.224960 0.665980 0
M  V30 14 C 3.161340 -2.049130 1.088790 0
M  V30 15 C 3.562020 -3.098950 0.252080 0
M  V30 16 C 2.917300 -3.287750 -0.970690 0
M  V30 17 C 1.882200 -2.422470 -1.322800 0
M  V30 18 C -2.378760 1.953150 -1.201890 0
M  V30 19 C -3.414250 2.792070 -0.807550 0
M  V30 20 C -3.535580 3.109400 0.547720 0
M  V30 21 C -2.616260 2.587000 1.461140 0
M  V30 22 C -1.594010 1.765330 0.994660 0
M  V30 23 C -0.499540 1.240420 1.904640 0
M  V30 24 C -0.499140 -1.241170 1.904500 0
M  V30 25 C -1.594030 -1.765700 0.994810 0
M  V30 26 C -2.616580 -2.586880 1.461470 0
M  V30 27 C -3.536210 -3.108980 0.548170 0
M  V30 28 C -3.414870 -2.791850 -0.807130 0
M  V30 29 C -2.379070 -1.953380 -1.201660 0
M  V30 30 H 1.341170 2.515080 -2.259420 0
M  V30 31 H 3.204740 4.088720 -1.642970 0
M  V30 32 H 4.366900 3.760410 0.556600 0
M  V30 33 H 3.644060 1.880450 2.045830 0
M  V30 34 H 2.011020 0.000010 2.455120 0
M  V30 35 H 3.644830 -1.879730 2.045570 0
M  V30 36 H 4.368360 -3.759250 0.556140 0
M  V30 37 H 3.206240 -4.087830 -1.643420 0
M  V30 38 H 1.342000 -2.514880 -2.259640 0
M  V30 39 H -2.230610 1.646670 -2.232190 0
M  V30 40 H -4.110050 3.178830 -1.544030 0
M  V30 41 H -4.338690 3.753850 0.891830 0
M  V30 42 H -2.690020 2.818670 2.519150 0
M  V30 43 H -2.690330 -2.818420 2.519500 0
M  V30 44 H -4.339560 -3.753060 0.892430 0
M  V30 45 H -4.110890 -3.178390 -1.543510 0
M  V30 46 H -2.230910 -1.647050 -2.232000 0
M  V30 47 H -0.886790 1.078350 2.916220 0
M  V30 48 H 0.270200 2.014260 1.986700 0
M  V30 49 H -0.885800 -1.079630 2.916380 0
M  V30 50 H 0.270700 -2.014990 1.985680 0
M  V30 51 F -0.377180 -0.000330 -2.625940 0
M  V30 END ATOM
M  V30 BEGIN BOND
M  V30 1 1 51 1
M  V30 2 1 38 17
M  V30 3 1 30 7
M  V30 4 1 39 18
M  V30 5 1 46 29
M  V30 6 1 37 16
M  V30 7 1 31 8
M  V30 8 1 40 19
M  V30 9 1 45 28
M  V30 10 1 17 16
M  V30 11 2 17 4
M  V30 12 1 7 8
M  V30 13 2 7 3
M  V30 14 1 18 19
M  V30 15 2 18 5
M  V30 16 1 29 28
M  V30 17 2 29 6
M  V30 18 2 16 15
M  V30 19 2 8 9
M  V30 20 2 19 20
M  V30 21 2 28 27
M  V30 22 1 4 13
M  V30 23 1 3 11
M  V30 24 1 5 22
M  V30 25 1 6 25
M  V30 26 1 15 36
M  V30 27 1 15 14
M  V30 28 1 9 32
M  V30 29 1 9 10
M  V30 30 1 20 41
M  V30 31 1 20 21
M  V30 32 1 27 44
M  V30 33 1 27 26
M  V30 34 2 13 14
M  V30 35 1 13 12
M  V30 36 2 11 10
M  V30 37 1 11 12
M  V30 38 2 22 21
M  V30 39 1 22 23
M  V30 40 2 25 26
M  V30 41 1 25 24
M  V30 42 1 14 35
M  V30 43 1 10 33
M  V30 44 1 2 12
M  V30 45 1 2 24
M  V30 46 1 2 23
M  V30 47 1 12 34
M  V30 48 1 21 42
M  V30 49 1 26 43
M  V30 50 1 24 50
M  V30 51 1 24 49
M  V30 52 1 23 48
M  V30 53 1 23 47
M  V30 54 9 2 1
M  V30 55 9 3 1
M  V30 56 9 4 1
M  V30 57 9 5 1
M  V30 58 9 6 1
M  V30 END BOND
M  V30 END CTAB
M  END
