
     RDKit          3D

  0  0  0  0  0  0  0  0  0  0999 V3000
M  V30 BEGIN CTAB
M  V30 COUNTS 52 59 0 0 0
M  V30 BEGIN ATOM
M  V30 1 Fe -0.033020 -0.000350 -0.623820 0 CHG=2 VAL=6
M  V30 2 N 0.155550 -0.000340 1.405570 0
M  V30 3 N 1.416330 1.358090 -0.493930 0
M  V30 4 N 1.417000 -1.357950 -0.493950 0
M  V30 5 N -1.433940 1.352580 -0.299560 0
M  V30 6 N -1.433710 -1.353450 -0.299510 0
M  V30 7 O -0.240070 -0.000530 -2.395410 0
M  V30 8 C 1.694130 2.362240 -1.337080 0
M  V30 9 C 2.714290 3.273230 -1.064170 0
M  V30 10 C 3.443770 3.136300 0.117500 0
M  V30 11 C 3.138940 2.091770 1.000110 0
M  V30 12 C 2.117160 1.219480 0.655480 0
M  V30 13 C 1.670000 0.000150 1.450230 0
M  V30 14 C 2.117960 -1.218780 0.655330 0
M  V30 15 C 3.140600 -2.090160 0.999670 0
M  V30 16 C 3.446160 -3.134380 0.116930 0
M  V30 17 C 2.716550 -3.271890 -1.064590 0
M  V30 18 C 1.695540 -2.361780 -1.337240 0
M  V30 19 C -2.289820 1.801330 -1.233540 0
M  V30 20 C -3.324150 2.673960 -0.909280 0
M  V30 21 C -3.474910 3.075440 0.419220 0
M  V30 22 C -2.581400 2.600960 1.382970 0
M  V30 23 C -1.561430 1.741930 0.987360 0
M  V30 24 C -0.488310 1.246320 1.934180 0
M  V30 25 C -0.487440 -1.247590 1.933850 0
M  V30 26 C -1.561080 -1.742780 0.987450 0
M  V30 27 C -2.581300 -2.601390 1.383270 0
M  V30 28 C -3.475240 -3.075480 0.419710 0
M  V30 29 C -3.324620 -2.674040 -0.908800 0
M  V30 30 C -2.290010 -1.801800 -1.233280 0
M  V30 31 H 1.080150 2.414910 -2.229640 0
M  V30 32 H 2.925940 4.071950 -1.766620 0
M  V30 33 H 4.238780 3.835700 0.356650 0
M  V30 34 H 3.682270 1.965410 1.930930 0
M  V30 35 H 2.064850 0.000200 2.471020 0
M  V30 36 H 3.684050 -1.963370 1.930360 0
M  V30 37 H 4.241850 -3.833080 0.355860 0
M  V30 38 H 2.928730 -4.070400 -1.767110 0
M  V30 39 H 1.081430 -2.414860 -2.229700 0
M  V30 40 H -2.112000 1.434190 -2.238050 0
M  V30 41 H -3.998420 3.022040 -1.684100 0
M  V30 42 H -4.278210 3.747490 0.704640 0
M  V30 43 H -2.672670 2.897000 2.423330 0
M  V30 44 H -2.672460 -2.897400 2.423650 0
M  V30 45 H -4.278740 -3.747220 0.705300 0
M  V30 46 H -3.999190 -3.021820 -1.683490 0
M  V30 47 H -2.112320 -1.434700 -2.237830 0
M  V30 48 H -0.889380 1.075560 2.937570 0
M  V30 49 H 0.281270 2.018350 2.028050 0
M  V30 50 H -0.887660 -1.077780 2.937740 0
M  V30 51 H 0.282520 -2.019410 2.026390 0
M  V30 52 H 0.607500 -0.000030 -2.874400 0
M  V30 END ATOM
M  V30 BEGIN BOND
M  V30 1 1 52 7
M  V30 2 1 7 1
M  V30 3 1 40 19
M  V30 4 1 47 30
M  V30 5 1 39 18
M  V30 6 1 31 8
M  V30 7 1 38 17
M  V30 8 1 32 9
M  V30 9 1 41 20
M  V30 10 1 46 29
M  V30 11 1 18 17
M  V30 12 2 18 4
M  V30 13 1 8 9
M  V30 14 2 8 3
M  V30 15 1 19 20
M  V30 16 2 19 5
M  V30 17 1 30 29
M  V30 18 2 30 6
M  V30 19 2 17 16
M  V30 20 2 9 10
M  V30 21 2 20 21
M  V30 22 2 29 28
M  V30 23 1 4 14
M  V30 24 1 3 12
M  V30 25 1 5 23
M  V30 26 1 6 26
M  V30 27 1 16 37
M  V30 28 1 16 15
M  V30 29 1 10 33
M  V30 30 1 10 11
M  V30 31 1 21 42
M  V30 32 1 21 22
M  V30 33 1 28 45
M  V30 34 1 28 27
M  V30 35 2 14 15
M  V30 36 1 14 13
M  V30 37 2 12 11
M  V30 38 1 12 13
M  V30 39 2 23 22
M  V30 40 1 23 24
M  V30 41 2 26 27
M  V30 42 1 26 25
M  V30 43 1 15 36
M  V30 44 1 11 34
M  V30 45 1 22 43
M  V30 46 1 27 44
M  V30 47 1 2 13
M  V30 48 1 2 25
M  V30 49 1 2 24
M  V30 50 1 13 35
M  V30 51 1 25 51
M  V30 52 1 25 50
M  V30 53 1 24 49
M  V30 54 1 24 48
M  V30 55 9 2 1
M  V30 56 9 3 1
M  V30 57 9 4 1
M  V30 58 9 5 1
M  V30 59 9 6 1
M  V30 END BOND
M  V30 END CTAB
M  END
