
     RDKit          3D

  0  0  0  0  0  0  0  0  0  0999 V3000
M  V30 BEGIN CTAB
M  V30 COUNTS 51 58 0 0 0
M  V30 BEGIN ATOM
M  V30 1 Fe 0.057810 -0.000290 0.537550 0 CHG=2 VAL=6
M  V30 2 N -0.158970 -0.000120 -1.694780 0
M  V30 3 N -1.523350 1.429020 0.169210 0
M  V30 4 N -1.523970 -1.428800 0.169140 0
M  V30 5 N 1.507850 1.457410 -0.026560 0
M  V30 6 N 1.507750 -1.457980 -0.026840 0
M  V30 7 C -1.902980 2.438360 0.969200 0
M  V30 8 C -2.943920 3.296120 0.616190 0
M  V30 9 C -3.598410 3.094410 -0.599030 0
M  V30 10 C -3.198620 2.039340 -1.429090 0
M  V30 11 C -2.156860 1.225680 -1.006640 0
M  V30 12 C -1.657560 0.000200 -1.762190 0
M  V30 13 C -2.157410 -1.225070 -1.006700 0
M  V30 14 C -3.199570 -2.038210 -1.429160 0
M  V30 15 C -3.599860 -3.093130 -0.599150 0
M  V30 16 C -2.945440 -3.295220 0.616040 0
M  V30 17 C -1.904080 -2.438000 0.969070 0
M  V30 18 C 2.427330 1.955930 0.825250 0
M  V30 19 C 3.469970 2.766830 0.392670 0
M  V30 20 C 3.569940 3.057600 -0.969190 0
M  V30 21 C 2.618660 2.536230 -1.848900 0
M  V30 22 C 1.591650 1.743950 -1.344150 0
M  V30 23 C 0.470560 1.238600 -2.228410 0
M  V30 24 C 0.470040 -1.239120 -2.228380 0
M  V30 25 C 1.591520 -1.744230 -1.344500 0
M  V30 26 C 2.618760 -2.536020 -1.849510 0
M  V30 27 C 3.570320 -3.057210 -0.970000 0
M  V30 28 C 3.470380 -2.766780 0.391930 0
M  V30 29 C 2.427480 -1.956340 0.824790 0
M  V30 30 H -1.360230 2.539010 1.902740 0
M  V30 31 H -3.230970 4.100100 1.285090 0
M  V30 32 H -4.410800 3.747740 -0.901970 0
M  V30 33 H -3.688320 1.857940 -2.380490 0
M  V30 34 H -2.023530 0.000310 -2.795220 0
M  V30 35 H -3.689220 -1.856510 -2.380540 0
M  V30 36 H -4.412580 -3.746040 -0.902110 0
M  V30 37 H -3.232870 -4.099100 1.284900 0
M  V30 38 H -1.361350 -2.538960 1.902590 0
M  V30 39 H 2.305730 1.684040 1.867490 0
M  V30 40 H 4.186710 3.153230 1.109010 0
M  V30 41 H 4.377150 3.679770 -1.343290 0
M  V30 42 H 2.669840 2.747220 -2.912530 0
M  V30 43 H 2.669900 -2.746770 -2.913190 0
M  V30 44 H 4.377740 -3.679000 -1.344310 0
M  V30 45 H 4.187320 -3.153080 1.108120 0
M  V30 46 H 2.305880 -1.684710 1.867090 0
M  V30 47 H 0.828180 1.079860 -3.251370 0
M  V30 48 H -0.293920 2.019670 -2.282210 0
M  V30 49 H 0.827050 -1.080830 -3.251630 0
M  V30 50 H -0.294610 -2.020080 -2.281350 0
M  V30 51 Br 0.140090 -0.000470 2.930420 0
M  V30 END ATOM
M  V30 BEGIN BOND
M  V30 1 1 49 24
M  V30 2 1 47 23
M  V30 3 1 43 26
M  V30 4 1 42 21
M  V30 5 1 34 12
M  V30 6 1 35 14
M  V30 7 1 33 10
M  V30 8 1 48 23
M  V30 9 1 50 24
M  V30 10 1 23 2
M  V30 11 1 23 22
M  V30 12 1 24 2
M  V30 13 1 24 25
M  V30 14 1 26 25
M  V30 15 2 26 27
M  V30 16 1 21 22
M  V30 17 2 21 20
M  V30 18 1 12 2
M  V30 19 1 12 13
M  V30 20 1 12 11
M  V30 21 1 14 13
M  V30 22 2 14 15
M  V30 23 1 10 11
M  V30 24 2 10 9
M  V30 25 2 25 6
M  V30 26 1 44 27
M  V30 27 2 22 5
M  V30 28 1 41 20
M  V30 29 2 13 4
M  V30 30 2 11 3
M  V30 31 1 27 28
M  V30 32 1 20 19
M  V30 33 1 36 15
M  V30 34 1 32 9
M  V30 35 1 15 16
M  V30 36 1 9 8
M  V30 37 1 6 29
M  V30 38 1 5 18
M  V30 39 1 4 17
M  V30 40 1 3 7
M  V30 41 2 28 29
M  V30 42 1 28 45
M  V30 43 2 19 18
M  V30 44 1 19 40
M  V30 45 1 1 51
M  V30 46 2 16 17
M  V30 47 1 16 37
M  V30 48 2 8 7
M  V30 49 1 8 31
M  V30 50 1 29 46
M  V30 51 1 18 39
M  V30 52 1 17 38
M  V30 53 1 7 30
M  V30 54 9 2 1
M  V30 55 9 3 1
M  V30 56 9 4 1
M  V30 57 9 5 1
M  V30 58 9 6 1
M  V30 END BOND
M  V30 END CTAB
M  END
