
     RDKit          3D

  0  0  0  0  0  0  0  0  0  0999 V3000
M  V30 BEGIN CTAB
M  V30 COUNTS 53 60 0 0 0
M  V30 BEGIN ATOM
M  V30 1 Fe 0.076390 -0.000770 0.480370 0 CHG=2 VAL=6
M  V30 2 N -0.264790 0.001290 -1.759450 0
M  V30 3 N -1.535440 1.432420 0.179210 0
M  V30 4 N -1.536150 -1.432490 0.176820 0
M  V30 5 N 1.490020 1.459800 -0.189350 0
M  V30 6 N 1.490050 -1.460050 -0.192150 0
M  V30 7 C -1.875760 2.444950 0.990920 0
M  V30 8 C -2.932150 3.303260 0.688950 0
M  V30 9 C -3.645030 3.097940 -0.492580 0
M  V30 10 C -3.285740 2.040710 -1.337410 0
M  V30 11 C -2.224470 1.227130 -0.963400 0
M  V30 12 C -1.762960 0.001640 -1.744730 0
M  V30 13 C -2.225120 -1.224900 -0.965420 0
M  V30 14 C -3.286900 -2.037220 -1.340700 0
M  V30 15 C -3.646780 -3.095630 -0.497590 0
M  V30 16 C -2.933970 -3.303310 0.683570 0
M  V30 17 C -1.877040 -2.446130 0.986900 0
M  V30 18 C 2.455000 1.951690 0.611520 0
M  V30 19 C 3.477810 2.758260 0.126470 0
M  V30 20 C 3.504660 3.049870 -1.239120 0
M  V30 21 C 2.505690 2.533780 -2.067160 0
M  V30 22 C 1.503580 1.745000 -1.507660 0
M  V30 23 C 0.333790 1.238740 -2.328020 0
M  V30 24 C 0.333260 -1.235490 -2.330030 0
M  V30 25 C 1.503570 -1.742690 -1.511030 0
M  V30 26 C 2.506030 -2.529810 -2.072210 0
M  V30 27 C 3.505420 -3.046940 -1.245310 0
M  V30 28 C 3.478600 -2.758020 0.120840 0
M  V30 29 C 2.455410 -1.952960 0.607620 0
M  V30 30 H -1.283910 2.552440 1.893980 0
M  V30 31 H -3.185050 4.110810 1.367260 0
M  V30 32 H -4.470380 3.751250 -0.758210 0
M  V30 33 H -3.820060 1.857700 -2.264220 0
M  V30 34 H -2.188670 0.002580 -2.755050 0
M  V30 35 H -3.821150 -1.852380 -2.267180 0
M  V30 36 H -4.472530 -3.748010 -0.764250 0
M  V30 37 H -3.187320 -4.111820 1.360570 0
M  V30 38 H -1.285220 -2.555450 1.889740 0
M  V30 39 H 2.385970 1.674870 1.658020 0
M  V30 40 H 4.235190 3.140540 0.802040 0
M  V30 41 H 4.293630 3.668560 -1.655520 0
M  V30 42 H 2.501810 2.744800 -3.132040 0
M  V30 43 H 2.502100 -2.738770 -3.137500 0
M  V30 44 H 4.294690 -3.664360 -1.663040 0
M  V30 45 H 4.236280 -3.141200 0.795550 0
M  V30 46 H 2.386390 -1.678220 1.654660 0
M  V30 47 H 0.634200 1.082510 -3.369940 0
M  V30 48 H -0.431190 2.021270 -2.338640 0
M  V30 49 H 0.632840 -1.078070 -3.372010 0
M  V30 50 H -0.431790 -2.017950 -2.340890 0
M  V30 51 N 0.322200 -0.002570 2.332880 0
M  V30 52 C 0.423740 -0.003810 3.539790 0
M  V30 53 S 0.561440 -0.005400 5.111640 0
M  V30 END ATOM
M  V30 BEGIN BOND
M  V30 1 1 49 24
M  V30 2 1 47 23
M  V30 3 1 43 26
M  V30 4 1 42 21
M  V30 5 1 34 12
M  V30 6 1 50 24
M  V30 7 1 48 23
M  V30 8 1 24 2
M  V30 9 1 24 25
M  V30 10 1 23 2
M  V30 11 1 23 22
M  V30 12 1 35 14
M  V30 13 1 33 10
M  V30 14 1 26 25
M  V30 15 2 26 27
M  V30 16 1 21 22
M  V30 17 2 21 20
M  V30 18 1 2 12
M  V30 19 1 12 13
M  V30 20 1 12 11
M  V30 21 1 44 27
M  V30 22 1 41 20
M  V30 23 2 25 6
M  V30 24 2 22 5
M  V30 25 1 14 13
M  V30 26 2 14 15
M  V30 27 1 10 11
M  V30 28 2 10 9
M  V30 29 1 27 28
M  V30 30 1 20 19
M  V30 31 2 13 4
M  V30 32 2 11 3
M  V30 33 1 36 15
M  V30 34 1 32 9
M  V30 35 1 15 16
M  V30 36 1 9 8
M  V30 37 1 6 29
M  V30 38 1 5 18
M  V30 39 2 28 29
M  V30 40 1 28 45
M  V30 41 2 19 18
M  V30 42 1 19 40
M  V30 43 1 4 17
M  V30 44 1 3 7
M  V30 45 1 1 51
M  V30 46 1 29 46
M  V30 47 1 18 39
M  V30 48 2 16 17
M  V30 49 1 16 37
M  V30 50 2 8 7
M  V30 51 1 8 31
M  V30 52 1 17 38
M  V30 53 1 7 30
M  V30 54 2 51 52
M  V30 55 2 52 53
M  V30 56 9 2 1
M  V30 57 9 3 1
M  V30 58 9 4 1
M  V30 59 9 5 1
M  V30 60 9 6 1
M  V30 END BOND
M  V30 END CTAB
M  END
