
     RDKit          3D

  0  0  0  0  0  0  0  0  0  0999 V3000
M  V30 BEGIN CTAB
M  V30 COUNTS 57 63 0 0 0
M  V30 BEGIN ATOM
M  V30 1 Fe -0.079360 0.070260 0.259930 0 CHG=2 VAL=6
M  V30 2 N -1.037450 1.654570 -0.562270 0
M  V30 3 N -0.463710 -0.826890 -1.631570 0
M  V30 4 N -1.907060 -0.530660 0.665300 0
M  V30 5 N 1.964140 -2.608140 -0.507330 0
M  V30 6 N 1.884660 0.599750 -0.370130 0
M  V30 7 C -1.434640 2.746870 0.125150 0
M  V30 8 H -1.022110 2.852440 1.120280 0
M  V30 9 C -2.331280 3.668450 -0.401370 0
M  V30 10 H -2.614840 4.535790 0.184830 0
M  V30 11 C -2.862970 3.442370 -1.672250 0
M  V30 12 H -3.578160 4.134380 -2.105830 0
M  V30 13 C -2.465060 2.305250 -2.375710 0
M  V30 14 H -2.856070 2.095140 -3.366160 0
M  V30 15 C -1.545690 1.437880 -1.791930 0
M  V30 16 C -0.970750 0.266920 -2.532000 0
M  V30 17 H -1.683550 -0.140450 -3.257860 0
M  V30 18 H -0.114220 0.637680 -3.104850 0
M  V30 19 C -2.610200 -0.154690 1.747760 0
M  V30 20 H -2.094140 0.492780 2.444910 0
M  V30 21 C -3.918100 -0.581540 1.951360 0
M  V30 22 H -4.452580 -0.267270 2.841030 0
M  V30 23 C -4.514110 -1.408100 0.998700 0
M  V30 24 H -5.535920 -1.751450 1.126100 0
M  V30 25 C -3.776780 -1.794230 -0.122910 0
M  V30 26 H -4.206380 -2.444840 -0.877870 0
M  V30 27 C -2.467310 -1.345340 -0.252230 0
M  V30 28 C -1.543870 -1.821190 -1.342700 0
M  V30 29 H -1.068690 -2.737920 -0.984780 0
M  V30 30 H -2.091190 -2.079850 -2.257210 0
M  V30 31 C 0.667930 -1.463080 -2.393110 0
M  V30 32 H 1.400920 -0.676410 -2.563870 0
M  V30 33 H 0.284570 -1.770570 -3.376220 0
M  V30 34 C 1.380000 -2.709300 -1.828990 0
M  V30 35 H 0.717110 -3.576780 -1.840830 0
M  V30 36 H 2.179180 -2.923510 -2.556710 0
M  V30 37 C 1.503490 -3.505570 0.540440 0
M  V30 38 H 2.303550 -3.740900 1.248840 0
M  V30 39 H 1.123040 -4.445540 0.135020 0
M  V30 40 C 0.398170 -2.682520 1.226620 0
M  V30 41 O -0.529280 -3.038690 1.900830 0
M  V30 42 O 0.679750 -1.421390 0.890080 0
M  V30 43 C 3.063870 -1.696090 -0.247850 0
M  V30 44 H 3.949630 -2.079060 -0.774340 0
M  V30 45 H 3.281260 -1.748500 0.822330 0
M  V30 46 C 2.960200 -0.199270 -0.612560 0
M  V30 47 C 4.150380 0.344550 -1.110820 0
M  V30 48 H 4.990730 -0.312970 -1.309050 0
M  V30 49 C 4.280550 1.714180 -1.328120 0
M  V30 50 H 5.210490 2.127300 -1.706140 0
M  V30 51 C 3.190680 2.528110 -1.040090 0
M  V30 52 H 3.225640 3.603970 -1.172740 0
M  V30 53 C 2.027430 1.927790 -0.574920 0
M  V30 54 H 1.163030 2.533530 -0.346300 0
M  V30 55 N 0.188770 1.014670 1.845330 0
M  V30 56 C 1.011950 1.422840 2.617330 0
M  V30 57 S 2.048720 1.984250 3.689870 0
M  V30 END ATOM
M  V30 BEGIN BOND
M  V30 1 1 33 31
M  V30 2 1 14 13
M  V30 3 1 17 16
M  V30 4 1 18 16
M  V30 5 1 32 31
M  V30 6 1 36 34
M  V30 7 1 16 15
M  V30 8 1 16 3
M  V30 9 1 31 34
M  V30 10 1 31 3
M  V30 11 1 13 15
M  V30 12 2 13 11
M  V30 13 1 30 28
M  V30 14 1 12 11
M  V30 15 1 35 34
M  V30 16 1 34 5
M  V30 17 2 15 2
M  V30 18 1 50 49
M  V30 19 1 11 9
M  V30 20 1 3 28
M  V30 21 1 28 29
M  V30 22 1 28 27
M  V30 23 2 49 47
M  V30 24 1 49 51
M  V30 25 1 48 47
M  V30 26 1 52 51
M  V30 27 1 47 46
M  V30 28 2 51 53
M  V30 29 1 26 25
M  V30 30 1 44 43
M  V30 31 2 46 6
M  V30 32 1 46 43
M  V30 33 1 53 6
M  V30 34 1 53 54
M  V30 35 1 2 7
M  V30 36 1 5 43
M  V30 37 1 5 37
M  V30 38 2 9 7
M  V30 39 1 9 10
M  V30 40 1 27 25
M  V30 41 2 27 4
M  V30 42 1 43 45
M  V30 43 2 25 23
M  V30 44 1 7 8
M  V30 45 1 39 37
M  V30 46 1 1 42
M  V30 47 1 1 55
M  V30 48 1 37 40
M  V30 49 1 37 38
M  V30 50 1 4 19
M  V30 51 1 42 40
M  V30 52 1 23 24
M  V30 53 1 23 21
M  V30 54 2 40 41
M  V30 55 2 19 21
M  V30 56 1 19 20
M  V30 57 2 55 56
M  V30 58 1 21 22
M  V30 59 2 56 57
M  V30 60 9 2 1
M  V30 61 9 3 1
M  V30 62 9 4 1
M  V30 63 9 6 1
M  V30 END BOND
M  V30 END CTAB
M  END
