
     RDKit          3D

  0  0  0  0  0  0  0  0  0  0999 V3000
M  V30 BEGIN CTAB
M  V30 COUNTS 56 62 0 0 0
M  V30 BEGIN ATOM
M  V30 1 Fe -0.017440 0.119150 -0.737950 0 CHG=2 VAL=6
M  V30 2 N 0.990810 1.824840 -0.189250 0
M  V30 3 N -0.013030 -0.241840 1.461380 0
M  V30 4 N 1.920820 -0.803600 -0.429150 0
M  V30 5 N -2.339020 -2.135740 0.482570 0
M  V30 6 N -2.125430 0.839510 -0.486060 0
M  V30 7 C 1.596920 2.631770 -1.080830 0
M  V30 8 H 1.300330 2.487600 -2.113530 0
M  V30 9 C 2.552660 3.563520 -0.689720 0
M  V30 10 H 3.013820 4.206440 -1.431420 0
M  V30 11 C 2.910350 3.633020 0.657750 0
M  V30 12 H 3.666650 4.336260 0.992710 0
M  V30 13 C 2.286470 2.783060 1.575490 0
M  V30 14 H 2.541250 2.817220 2.629890 0
M  V30 15 C 1.319790 1.894610 1.117310 0
M  V30 16 C 0.491170 1.054420 2.050040 0
M  V30 17 H 1.026930 0.855680 2.985160 0
M  V30 18 H -0.389110 1.651180 2.311030 0
M  V30 19 C 2.890800 -0.798130 -1.356560 0
M  V30 20 H 2.611000 -0.395760 -2.324280 0
M  V30 21 C 4.169320 -1.274010 -1.079470 0
M  V30 22 H 4.930760 -1.267450 -1.851720 0
M  V30 23 C 4.441340 -1.749600 0.204520 0
M  V30 24 H 5.430020 -2.120570 0.456250 0
M  V30 25 C 3.427650 -1.745430 1.167420 0
M  V30 26 H 3.609650 -2.114780 2.171700 0
M  V30 27 C 2.171080 -1.271330 0.806140 0
M  V30 28 C 0.969250 -1.344920 1.717120 0
M  V30 29 H 0.467970 -2.294410 1.511720 0
M  V30 30 H 1.264170 -1.356140 2.773960 0
M  V30 31 C -1.308340 -0.507130 2.173060 0
M  V30 32 H -1.955870 0.340980 1.961990 0
M  V30 33 H -1.121870 -0.513770 3.256720 0
M  V30 34 C -2.069110 -1.812640 1.879550 0
M  V30 35 H -1.561700 -2.671800 2.321350 0
M  V30 36 H -3.032740 -1.715390 2.398520 0
M  V30 37 C -1.744530 -3.255950 -0.099220 0
M  V30 38 H -2.365240 -3.714420 -0.875240 0
M  V30 39 H -1.401880 -3.991510 0.625350 0
M  V30 40 C -0.398570 -2.751150 -0.973870 0
M  V30 41 O 0.528490 -3.520440 -0.933530 0
M  V30 42 O -0.608610 -1.629080 -1.523640 0
M  V30 43 C -3.283440 -1.358940 -0.331230 0
M  V30 44 H -4.290230 -1.717070 -0.075720 0
M  V30 45 H -3.094280 -1.627420 -1.373380 0
M  V30 46 C -3.266790 0.154600 -0.223790 0
M  V30 47 C -4.470630 0.814880 0.022780 0
M  V30 48 H -5.367770 0.242090 0.234790 0
M  V30 49 C -4.523060 2.210160 -0.028570 0
M  V30 50 H -5.457200 2.732170 0.154030 0
M  V30 51 C -3.357940 2.908140 -0.330840 0
M  V30 52 H -3.344460 3.990310 -0.402640 0
M  V30 53 C -2.188010 2.183230 -0.546560 0
M  V30 54 H -1.260040 2.689530 -0.783140 0
M  V30 55 O 0.160530 0.645260 -2.419690 0
M  V30 56 H -0.147280 -0.068320 -3.012030 0
M  V30 END ATOM
M  V30 BEGIN BOND
M  V30 1 1 56 55
M  V30 2 1 55 1
M  V30 3 1 20 19
M  V30 4 1 8 7
M  V30 5 1 22 21
M  V30 6 1 42 40
M  V30 7 1 42 1
M  V30 8 1 10 9
M  V30 9 1 45 43
M  V30 10 1 19 21
M  V30 11 2 19 4
M  V30 12 1 7 9
M  V30 13 2 7 2
M  V30 14 2 21 23
M  V30 15 2 40 41
M  V30 16 1 40 37
M  V30 17 1 38 37
M  V30 18 1 54 53
M  V30 19 2 9 11
M  V30 20 2 53 6
M  V30 21 1 53 51
M  V30 22 1 6 46
M  V30 23 1 4 27
M  V30 24 1 52 51
M  V30 25 1 43 46
M  V30 26 1 43 44
M  V30 27 1 43 5
M  V30 28 2 51 49
M  V30 29 2 46 47
M  V30 30 1 2 15
M  V30 31 1 37 5
M  V30 32 1 37 39
M  V30 33 1 49 47
M  V30 34 1 49 50
M  V30 35 1 47 48
M  V30 36 1 23 24
M  V30 37 1 23 25
M  V30 38 1 5 34
M  V30 39 1 11 12
M  V30 40 1 11 13
M  V30 41 2 27 25
M  V30 42 1 27 28
M  V30 43 2 15 13
M  V30 44 1 15 16
M  V30 45 1 25 26
M  V30 46 1 3 28
M  V30 47 1 3 16
M  V30 48 1 3 31
M  V30 49 1 29 28
M  V30 50 1 13 14
M  V30 51 1 28 30
M  V30 52 1 34 31
M  V30 53 1 34 35
M  V30 54 1 34 36
M  V30 55 1 32 31
M  V30 56 1 16 18
M  V30 57 1 16 17
M  V30 58 1 31 33
M  V30 59 9 2 1
M  V30 60 9 3 1
M  V30 61 9 4 1
M  V30 62 9 6 1
M  V30 END BOND
M  V30 END CTAB
M  END
