
     RDKit          3D

  0  0  0  0  0  0  0  0  0  0999 V3000
M  V30 BEGIN CTAB
M  V30 COUNTS 55 61 0 0 0
M  V30 BEGIN ATOM
M  V30 1 Fe 0.038670 0.096920 0.815460 0 CHG=2 VAL=6
M  V30 2 N -1.153220 1.783140 0.016870 0
M  V30 3 N 0.117480 -0.273850 -1.576100 0
M  V30 4 N -1.815270 -0.875460 0.380500 0
M  V30 5 N 2.474260 -2.094340 -0.511550 0
M  V30 6 N 2.036550 0.927360 0.405630 0
M  V30 7 C -1.948810 2.542770 0.797000 0
M  V30 8 H -1.740150 2.514160 1.859050 0
M  V30 9 C -2.983490 3.315360 0.277720 0
M  V30 10 H -3.589410 3.919170 0.944520 0
M  V30 11 C -3.221980 3.281790 -1.095360 0
M  V30 12 H -4.030460 3.859220 -1.533050 0
M  V30 13 C -2.399980 2.492200 -1.903950 0
M  V30 14 H -2.549940 2.451280 -2.978090 0
M  V30 15 C -1.370160 1.765090 -1.315750 0
M  V30 16 C -0.355260 1.026570 -2.147300 0
M  V30 17 H -0.729670 0.876280 -3.168260 0
M  V30 18 H 0.523100 1.676920 -2.222150 0
M  V30 19 C -2.771280 -0.956450 1.323960 0
M  V30 20 H -2.506680 -0.569890 2.302190 0
M  V30 21 C -4.020290 -1.504210 1.053600 0
M  V30 22 H -4.765950 -1.563640 1.838780 0
M  V30 23 C -4.281780 -1.964870 -0.237730 0
M  V30 24 H -5.248900 -2.390900 -0.486040 0
M  V30 25 C -3.282940 -1.877430 -1.210250 0
M  V30 26 H -3.455330 -2.239000 -2.219060 0
M  V30 27 C -2.048650 -1.335730 -0.863430 0
M  V30 28 C -0.876100 -1.356690 -1.820350 0
M  V30 29 H -0.372910 -2.317540 -1.676380 0
M  V30 30 H -1.226100 -1.334960 -2.861400 0
M  V30 31 C 1.410550 -0.551830 -2.270430 0
M  V30 32 H 2.048960 0.313580 -2.103000 0
M  V30 33 H 1.236540 -0.612810 -3.355670 0
M  V30 34 C 2.198780 -1.829440 -1.921000 0
M  V30 35 H 1.711540 -2.717690 -2.326210 0
M  V30 36 H 3.162020 -1.733530 -2.441630 0
M  V30 37 C 1.952990 -3.247880 0.085720 0
M  V30 38 H 2.570640 -3.616140 0.910110 0
M  V30 39 H 1.721680 -4.036430 -0.627490 0
M  V30 40 C 0.524580 -2.818650 0.827400 0
M  V30 41 O -0.381930 -3.603100 0.723120 0
M  V30 42 O 0.650800 -1.674590 1.371930 0
M  V30 43 C 3.312390 -1.214300 0.317020 0
M  V30 44 H 4.353680 -1.511450 0.131440 0
M  V30 45 H 3.085320 -1.451510 1.359410 0
M  V30 46 C 3.203860 0.289120 0.134640 0
M  V30 47 C 4.356680 1.003110 -0.192020 0
M  V30 48 H 5.278510 0.470260 -0.402140 0
M  V30 49 C 4.329730 2.399710 -0.222900 0
M  V30 50 H 5.225620 2.961350 -0.468730 0
M  V30 51 C 3.137480 3.048640 0.083900 0
M  V30 52 H 3.063650 4.130650 0.096250 0
M  V30 53 C 2.020910 2.275360 0.390290 0
M  V30 54 H 1.075920 2.741030 0.642440 0
M  V30 55 Cl -0.055310 0.877750 2.898270 0
M  V30 END ATOM
M  V30 BEGIN BOND
M  V30 1 1 33 31
M  V30 2 1 17 16
M  V30 3 1 14 13
M  V30 4 1 30 28
M  V30 5 1 36 34
M  V30 6 1 35 34
M  V30 7 1 31 32
M  V30 8 1 31 34
M  V30 9 1 31 3
M  V30 10 1 18 16
M  V30 11 1 26 25
M  V30 12 1 16 3
M  V30 13 1 16 15
M  V30 14 1 34 5
M  V30 15 1 13 15
M  V30 16 2 13 11
M  V30 17 1 28 29
M  V30 18 1 28 3
M  V30 19 1 28 27
M  V30 20 1 12 11
M  V30 21 2 15 2
M  V30 22 1 25 27
M  V30 23 2 25 23
M  V30 24 1 11 9
M  V30 25 2 27 4
M  V30 26 1 39 37
M  V30 27 1 5 37
M  V30 28 1 5 43
M  V30 29 1 24 23
M  V30 30 1 50 49
M  V30 31 1 48 47
M  V30 32 1 23 21
M  V30 33 2 49 47
M  V30 34 1 49 51
M  V30 35 1 47 46
M  V30 36 1 2 7
M  V30 37 1 51 52
M  V30 38 2 51 53
M  V30 39 1 37 40
M  V30 40 1 37 38
M  V30 41 1 44 43
M  V30 42 1 46 43
M  V30 43 2 46 6
M  V30 44 2 9 7
M  V30 45 1 9 10
M  V30 46 1 43 45
M  V30 47 1 4 19
M  V30 48 1 53 6
M  V30 49 1 53 54
M  V30 50 2 41 40
M  V30 51 1 7 8
M  V30 52 1 1 42
M  V30 53 1 1 55
M  V30 54 1 40 42
M  V30 55 2 21 19
M  V30 56 1 21 22
M  V30 57 1 19 20
M  V30 58 9 2 1
M  V30 59 9 3 1
M  V30 60 9 4 1
M  V30 61 9 6 1
M  V30 END BOND
M  V30 END CTAB
M  END
