
     RDKit          3D

  0  0  0  0  0  0  0  0  0  0999 V3000
M  V30 BEGIN CTAB
M  V30 COUNTS 41 41 0 0 0
M  V30 BEGIN ATOM
M  V30 1 Fe 0.512790 0.105740 1.317260 0 VAL=6
M  V30 2 O 2.513510 0.143350 1.783560 0
M  V30 3 S 3.640770 -0.712640 1.207080 0 VAL=6
M  V30 4 O 3.155800 -1.988830 0.593860 0
M  V30 5 O 4.768220 -0.827770 2.121990 0
M  V30 6 C 4.227850 0.307060 -0.257160 0
M  V30 7 F 3.517570 -0.005080 -1.344620 0
M  V30 8 F 4.098530 1.602040 0.009440 0
M  V30 9 F 5.513020 0.021090 -0.485070 0
M  V30 10 O -1.887580 -0.252030 0.542640 0
M  V30 11 S -3.096650 0.582580 0.430550 0 VAL=6
M  V30 12 O -3.778150 0.482530 -0.927140 0
M  V30 13 O -3.031230 1.988610 0.843760 0 CHG=-1 VAL=1
M  V30 14 C -4.298260 -0.248800 1.586260 0
M  V30 15 F -3.786700 -0.253770 2.816360 0
M  V30 16 F -4.495680 -1.514210 1.186420 0
M  V30 17 O 0.392400 1.789750 0.473980 0
M  V30 18 S 0.285500 2.199410 -1.038580 0 VAL=6
M  V30 19 O -0.914090 1.643680 -1.673920 0
M  V30 20 O 1.567420 2.109690 -1.727880 0
M  V30 21 F -5.460930 0.398700 1.581880 0
M  V30 22 C -0.067130 4.007840 -0.741320 0
M  V30 23 F -1.181530 4.146860 -0.029550 0
M  V30 24 F -0.220120 4.598570 -1.931330 0
M  V30 25 F 0.955540 4.567000 -0.096760 0
M  V30 26 O 0.892030 -0.560440 -0.384740 0
M  V30 27 I 0.958260 -2.447450 -0.781030 0 CHG=1 VAL=2
M  V30 28 C -1.031440 -2.261590 -1.540300 0
M  V30 29 C -2.059770 -3.044910 -0.981750 0
M  V30 30 H -1.834340 -3.818980 -0.255640 0
M  V30 31 C -3.372390 -2.787110 -1.351840 0
M  V30 32 H -4.181220 -3.369650 -0.924420 0
M  V30 33 C -3.648810 -1.733650 -2.233380 0
M  V30 34 H -4.673060 -1.509570 -2.509140 0
M  V30 35 C -2.599500 -0.952640 -2.769480 0
M  V30 36 H -2.822940 -0.117040 -3.422050 0
M  V30 37 C -1.274180 -1.222430 -2.428150 0
M  V30 38 H -0.481800 -0.577850 -2.785850 0
M  V30 39 O 0.212700 -1.564000 1.870320 0
M  V30 40 H -0.008490 -1.523810 2.820810 0
M  V30 41 F -0.026230 0.735960 2.827480 0
M  V30 END ATOM
M  V30 BEGIN BOND
M  V30 1 1 36 35
M  V30 2 1 38 37
M  V30 3 1 35 37
M  V30 4 2 35 33
M  V30 5 1 34 33
M  V30 6 2 37 28
M  V30 7 1 33 31
M  V30 8 1 24 22
M  V30 9 2 20 18
M  V30 10 2 19 18
M  V30 11 1 28 29
M  V30 12 2 31 29
M  V30 13 1 31 32
M  V30 14 1 7 6
M  V30 15 1 18 22
M  V30 16 1 18 17
M  V30 17 1 29 30
M  V30 18 2 12 11
M  V30 19 1 27 26
M  V30 20 1 22 25
M  V30 21 1 22 23
M  V30 22 1 9 6
M  V30 23 1 26 1
M  V30 24 1 6 8
M  V30 25 1 6 3
M  V30 26 2 11 10
M  V30 27 1 11 13
M  V30 28 1 11 14
M  V30 29 1 17 1
M  V30 30 2 4 3
M  V30 31 1 16 14
M  V30 32 1 3 2
M  V30 33 2 3 5
M  V30 34 1 1 2
M  V30 35 1 1 39
M  V30 36 1 1 41
M  V30 37 1 21 14
M  V30 38 1 14 15
M  V30 39 1 39 40
M  V30 40 1 27 28
M  V30 41 9 10 1
M  V30 END BOND
M  V30 END CTAB
M  END
