
     RDKit          3D

  0  0  0  0  0  0  0  0  0  0999 V3000
M  V30 BEGIN CTAB
M  V30 COUNTS 85 89 0 0 0
M  V30 BEGIN ATOM
M  V30 1 Fe -0.034250 0.069300 0.090070 0 VAL=6
M  V30 2 C -2.378430 -1.318790 1.467790 0
M  V30 3 C -1.142030 -1.809140 2.150640 0
M  V30 4 C -1.153810 -2.683480 3.243810 0
M  V30 5 H -2.087570 -3.065210 3.639060 0
M  V30 6 C 0.061500 -3.049670 3.820420 0
M  V30 7 H 0.080970 -3.724850 4.670400 0
M  V30 8 C 1.251050 -2.541740 3.301790 0
M  V30 9 H 2.202800 -2.813870 3.741920 0
M  V30 10 C 1.189690 -1.676500 2.201820 0
M  V30 11 C 2.392670 -1.071620 1.554220 0
M  V30 12 C -3.716700 -1.804790 1.958170 0
M  V30 13 H -4.522850 -1.365800 1.370290 0
M  V30 14 H -3.859940 -1.534320 3.011040 0
M  V30 15 H -3.777810 -2.896960 1.881920 0
M  V30 16 C 3.735060 -1.294180 2.200220 0
M  V30 17 H 3.971280 -2.363300 2.247640 0
M  V30 18 H 3.723070 -0.909380 3.226940 0
M  V30 19 H 4.521560 -0.785970 1.643030 0
M  V30 20 C -3.298750 0.084230 -0.216350 0
M  V30 21 C -3.793190 -0.570750 -1.360620 0
M  V30 22 C -4.851760 0.035190 -2.047360 0
M  V30 23 H -5.250100 -0.450180 -2.933860 0
M  V30 24 C -5.391980 1.246100 -1.623620 0
M  V30 25 H -6.213790 1.698320 -2.172230 0
M  V30 26 C -4.865360 1.882850 -0.502850 0
M  V30 27 H -5.278250 2.834960 -0.181490 0
M  V30 28 C -3.802810 1.326420 0.217180 0
M  V30 29 C -3.196970 -1.873840 -1.874940 0
M  V30 30 H -2.391850 -2.174650 -1.201490 0
M  V30 31 C -4.237650 -3.008240 -1.897500 0
M  V30 32 H -4.671330 -3.174800 -0.903410 0
M  V30 33 H -3.773540 -3.944640 -2.229270 0
M  V30 34 H -5.062380 -2.784950 -2.584590 0
M  V30 35 C -2.553460 -1.666100 -3.258640 0
M  V30 36 H -3.308730 -1.412880 -4.012760 0
M  V30 37 H -2.042320 -2.580930 -3.579870 0
M  V30 38 H -1.815700 -0.859900 -3.222530 0
M  V30 39 C -3.223450 2.056080 1.421610 0
M  V30 40 H -2.335220 1.516560 1.758340 0
M  V30 41 C -2.742060 3.467340 1.036960 0
M  V30 42 H -2.050490 3.418890 0.188850 0
M  V30 43 H -2.226100 3.932870 1.885560 0
M  V30 44 H -3.575680 4.121410 0.754290 0
M  V30 45 C -4.230420 2.103280 2.585200 0
M  V30 46 H -5.137080 2.654420 2.306870 0
M  V30 47 H -3.788210 2.600950 3.456660 0
M  V30 48 H -4.537830 1.094710 2.888930 0
M  V30 49 C 3.267740 0.259360 -0.204780 0
M  V30 50 C 3.601470 1.587270 0.133990 0
M  V30 51 C 4.642850 2.197520 -0.574190 0
M  V30 52 H 4.918910 3.218360 -0.325890 0
M  V30 53 C 5.327480 1.524550 -1.581360 0
M  V30 54 H 6.132380 2.018050 -2.119400 0
M  V30 55 C 4.975890 0.215490 -1.896700 0
M  V30 56 H 5.514100 -0.309040 -2.680570 0
M  V30 57 C 3.939950 -0.444880 -1.225530 0
M  V30 58 C 2.898830 2.345370 1.252280 0
M  V30 59 H 2.057560 1.746790 1.606920 0
M  V30 60 C 2.291200 3.666780 0.748040 0
M  V30 61 H 3.062270 4.376420 0.424100 0
M  V30 62 H 1.718120 4.143990 1.552640 0
M  V30 63 H 1.619490 3.483290 -0.096500 0
M  V30 64 C 3.852920 2.586960 2.437440 0
M  V30 65 H 4.703190 3.215980 2.146230 0
M  V30 66 H 4.258300 1.644400 2.825840 0
M  V30 67 H 3.325450 3.092170 3.255480 0
M  V30 68 C 3.605630 -1.887070 -1.587200 0
M  V30 69 H 2.661300 -2.149950 -1.105060 0
M  V30 70 C 4.693470 -2.850590 -1.072090 0
M  V30 71 H 5.661400 -2.630630 -1.538520 0
M  V30 72 H 4.432710 -3.888790 -1.310900 0
M  V30 73 H 4.827170 -2.773940 0.012760 0
M  V30 74 C 3.397580 -2.068650 -3.101260 0
M  V30 75 H 4.335180 -1.944610 -3.656240 0
M  V30 76 H 2.670030 -1.347060 -3.479570 0
M  V30 77 H 3.019350 -3.076160 -3.308210 0
M  V30 78 N 2.183840 -0.379350 0.493650 0
M  V30 79 N 0.013020 -1.341180 1.662120 0
M  V30 80 N -2.201070 -0.493740 0.503430 0
M  V30 81 O -0.170610 -1.505670 -1.105050 0
M  V30 82 O 0.597670 -1.590400 -2.125910 0
M  V30 83 O -0.080170 1.362980 1.419300 0
M  V30 84 H -0.211210 2.233440 1.008010 0
M  V30 85 Br -0.189450 1.705460 -1.758970 0
M  V30 END ATOM
M  V30 BEGIN BOND
M  V30 1 1 36 35
M  V30 2 1 75 74
M  V30 3 1 37 35
M  V30 4 1 76 74
M  V30 5 1 77 74
M  V30 6 1 35 38
M  V30 7 1 35 29
M  V30 8 1 74 68
M  V30 9 1 23 22
M  V30 10 1 56 55
M  V30 11 1 34 31
M  V30 12 1 33 31
M  V30 13 1 25 24
M  V30 14 2 82 81
M  V30 15 1 54 53
M  V30 16 1 22 24
M  V30 17 2 22 21
M  V30 18 1 31 29
M  V30 19 1 31 32
M  V30 20 2 55 53
M  V30 21 1 55 57
M  V30 22 1 29 21
M  V30 23 1 29 30
M  V30 24 1 85 1
M  V30 25 2 24 26
M  V30 26 1 68 57
M  V30 27 1 68 69
M  V30 28 1 68 70
M  V30 29 1 53 51
M  V30 30 1 71 70
M  V30 31 1 21 20
M  V30 32 1 72 70
M  V30 33 2 57 49
M  V30 34 1 70 73
M  V30 35 1 51 52
M  V30 36 2 51 50
M  V30 37 1 26 27
M  V30 38 1 26 28
M  V30 39 2 20 28
M  V30 40 1 20 80
M  V30 41 1 49 50
M  V30 42 1 49 78
M  V30 43 1 63 60
M  V30 44 1 1 80
M  V30 45 1 1 83
M  V30 46 1 1 79
M  V30 47 1 50 58
M  V30 48 1 42 41
M  V30 49 1 28 39
M  V30 50 1 61 60
M  V30 51 2 78 11
M  V30 52 1 80 2
M  V30 53 1 60 58
M  V30 54 1 60 62
M  V30 55 1 44 41
M  V30 56 1 84 83
M  V30 57 1 41 39
M  V30 58 1 41 43
M  V30 59 1 58 59
M  V30 60 1 58 64
M  V30 61 1 13 12
M  V30 62 1 39 40
M  V30 63 1 39 45
M  V30 64 1 2 12
M  V30 65 2 2 3
M  V30 66 1 11 16
M  V30 67 1 11 10
M  V30 68 1 19 16
M  V30 69 1 79 3
M  V30 70 1 79 10
M  V30 71 1 15 12
M  V30 72 1 12 14
M  V30 73 1 65 64
M  V30 74 1 3 4
M  V30 75 1 16 17
M  V30 76 1 16 18
M  V30 77 2 10 8
M  V30 78 1 46 45
M  V30 79 1 64 66
M  V30 80 1 64 67
M  V30 81 1 45 48
M  V30 82 1 45 47
M  V30 83 1 4 5
M  V30 84 2 4 6
M  V30 85 1 8 9
M  V30 86 1 8 6
M  V30 87 1 6 7
M  V30 88 9 78 1
M  V30 89 9 81 1
M  V30 END BOND
M  V30 END CTAB
M  END
