
     RDKit          3D

  0  0  0  0  0  0  0  0  0  0999 V3000
M  V30 BEGIN CTAB
M  V30 COUNTS 87 91 0 0 0
M  V30 BEGIN ATOM
M  V30 1 Fe 0.072270 0.025960 -0.337130 0 VAL=6
M  V30 2 C 2.403790 -0.606300 1.588070 0
M  V30 3 C 1.161700 -0.853850 2.379580 0
M  V30 4 C 1.156360 -1.443750 3.647560 0
M  V30 5 H 2.084020 -1.724470 4.131460 0
M  V30 6 C -0.067820 -1.682560 4.270150 0
M  V30 7 H -0.100900 -2.147700 5.250330 0
M  V30 8 C -1.248490 -1.351240 3.611420 0
M  V30 9 H -2.209640 -1.565830 4.061630 0
M  V30 10 C -1.170850 -0.754650 2.347520 0
M  V30 11 C -2.369050 -0.374520 1.537000 0
M  V30 12 C 3.735070 -0.949670 2.200990 0
M  V30 13 H 4.548100 -0.700240 1.518910 0
M  V30 14 H 3.775150 -2.024800 2.415360 0
M  V30 15 H 3.884790 -0.416090 3.146040 0
M  V30 16 C -3.739300 -0.683710 2.075850 0
M  V30 17 H -3.881710 -0.263540 3.077370 0
M  V30 18 H -3.857200 -1.772130 2.144230 0
M  V30 19 H -4.509450 -0.289300 1.412110 0
M  V30 20 C 3.311490 0.204410 -0.461430 0
M  V30 21 C 3.911380 1.476350 -0.333770 0
M  V30 22 C 4.934860 1.799860 -1.233070 0
M  V30 23 H 5.423300 2.766540 -1.151010 0
M  V30 24 C 5.334070 0.912450 -2.229080 0
M  V30 25 H 6.128930 1.188200 -2.916840 0
M  V30 26 C 4.706170 -0.324980 -2.345720 0
M  V30 27 H 5.010500 -1.012060 -3.130200 0
M  V30 28 C 3.681560 -0.704580 -1.472430 0
M  V30 29 C 3.496390 2.480900 0.738010 0
M  V30 30 H 2.582500 2.115050 1.215720 0
M  V30 31 C 4.587020 2.618050 1.819560 0
M  V30 32 H 4.827060 1.656420 2.284990 0
M  V30 33 H 4.263840 3.308270 2.608110 0
M  V30 34 H 5.513660 3.013500 1.386680 0
M  V30 35 C 3.160090 3.860590 0.143090 0
M  V30 36 H 4.039100 4.328560 -0.315110 0
M  V30 37 H 2.804360 4.530790 0.934800 0
M  V30 38 H 2.373350 3.780970 -0.610470 0
M  V30 39 C 2.998930 -2.056680 -1.623600 0
M  V30 40 H 2.251830 -2.154320 -0.833380 0
M  V30 41 C 2.230690 -2.141340 -2.954890 0
M  V30 42 H 1.490980 -1.338250 -3.016540 0
M  V30 43 H 1.701810 -3.099130 -3.019990 0
M  V30 44 H 2.911330 -2.067260 -3.812690 0
M  V30 45 C 3.998860 -3.216370 -1.465080 0
M  V30 46 H 4.755770 -3.208830 -2.258670 0
M  V30 47 H 3.473610 -4.177130 -1.514340 0
M  V30 48 H 4.525380 -3.163490 -0.503840 0
M  V30 49 C -3.142860 0.682030 -0.456250 0
M  V30 50 C -3.749530 -0.158170 -1.409780 0
M  V30 51 C -4.684690 0.417090 -2.278640 0
M  V30 52 H -5.159890 -0.209060 -3.028220 0
M  V30 53 C -5.009230 1.768250 -2.202810 0
M  V30 54 H -5.739940 2.192710 -2.886090 0
M  V30 55 C -4.392590 2.577340 -1.250430 0
M  V30 56 H -4.652700 3.629900 -1.194670 0
M  V30 57 C -3.440170 2.059720 -0.366510 0
M  V30 58 C -3.387650 -1.630350 -1.532260 0
M  V30 59 H -2.764270 -1.901240 -0.679820 0
M  V30 60 C -2.546390 -1.875260 -2.799170 0
M  V30 61 H -3.132190 -1.654990 -3.700970 0
M  V30 62 H -2.229590 -2.923690 -2.842480 0
M  V30 63 H -1.653370 -1.244150 -2.797990 0
M  V30 64 C -4.624030 -2.544700 -1.486640 0
M  V30 65 H -5.273000 -2.399420 -2.358450 0
M  V30 66 H -5.225090 -2.361400 -0.587670 0
M  V30 67 H -4.307590 -3.593460 -1.475920 0
M  V30 68 C -2.794610 2.943420 0.695910 0
M  V30 69 H -1.874080 2.451930 1.023350 0
M  V30 70 C -3.722000 3.077770 1.920670 0
M  V30 71 H -4.664050 3.564330 1.640170 0
M  V30 72 H -3.247100 3.682190 2.703180 0
M  V30 73 H -3.971420 2.100870 2.349110 0
M  V30 74 C -2.393930 4.330110 0.167820 0
M  V30 75 H -3.267660 4.936180 -0.099370 0
M  V30 76 H -1.746930 4.241670 -0.708610 0
M  V30 77 H -1.841730 4.875820 0.941740 0
M  V30 78 N -2.119970 0.168460 0.403660 0
M  V30 79 N 0.015900 -0.494110 1.780960 0
M  V30 80 N 2.227740 -0.148150 0.404200 0
M  V30 81 O 0.251770 1.904610 0.038310 0
M  V30 82 O 0.243870 2.771130 -0.916820 0
M  V30 83 O 0.045440 0.368710 -2.077750 0
M  V30 84 H 0.090100 1.346120 -2.182580 0
M  V30 85 N -0.105940 -1.959980 -0.521870 0
M  V30 86 C -0.575300 -2.893860 0.043050 0
M  V30 87 S -1.248820 -4.128940 0.851220 0
M  V30 END ATOM
M  V30 BEGIN BOND
M  V30 1 1 44 41
M  V30 2 1 61 60
M  V30 3 1 27 26
M  V30 4 1 52 51
M  V30 5 1 43 41
M  V30 6 1 42 41
M  V30 7 1 41 39
M  V30 8 1 25 24
M  V30 9 1 54 53
M  V30 10 1 62 60
M  V30 11 1 60 63
M  V30 12 1 60 58
M  V30 13 1 65 64
M  V30 14 2 26 24
M  V30 15 1 26 28
M  V30 16 1 51 53
M  V30 17 2 51 50
M  V30 18 1 46 45
M  V30 19 1 24 22
M  V30 20 2 53 55
M  V30 21 1 84 83
M  V30 22 1 83 1
M  V30 23 1 39 28
M  V30 24 1 39 45
M  V30 25 1 39 40
M  V30 26 1 58 64
M  V30 27 1 58 50
M  V30 28 1 58 59
M  V30 29 1 47 45
M  V30 30 1 64 67
M  V30 31 1 64 66
M  V30 32 2 28 20
M  V30 33 1 45 48
M  V30 34 1 50 49
M  V30 35 1 55 56
M  V30 36 1 55 57
M  V30 37 1 22 23
M  V30 38 2 22 21
M  V30 39 2 82 81
M  V30 40 1 76 74
M  V30 41 1 38 35
M  V30 42 1 85 1
M  V30 43 2 85 86
M  V30 44 1 20 21
M  V30 45 1 20 80
M  V30 46 2 49 57
M  V30 47 1 49 78
M  V30 48 1 57 68
M  V30 49 1 1 80
M  V30 50 1 1 79
M  V30 51 1 21 29
M  V30 52 1 36 35
M  V30 53 1 75 74
M  V30 54 2 86 87
M  V30 55 1 35 29
M  V30 56 1 35 37
M  V30 57 1 74 68
M  V30 58 1 74 77
M  V30 59 2 78 11
M  V30 60 1 80 2
M  V30 61 1 68 69
M  V30 62 1 68 70
M  V30 63 1 29 30
M  V30 64 1 29 31
M  V30 65 1 34 31
M  V30 66 1 19 16
M  V30 67 1 13 12
M  V30 68 1 11 16
M  V30 69 1 11 10
M  V30 70 1 2 12
M  V30 71 2 2 3
M  V30 72 1 71 70
M  V30 73 1 79 10
M  V30 74 1 79 3
M  V30 75 1 31 32
M  V30 76 1 31 33
M  V30 77 1 70 73
M  V30 78 1 70 72
M  V30 79 1 16 18
M  V30 80 1 16 17
M  V30 81 1 12 14
M  V30 82 1 12 15
M  V30 83 2 10 8
M  V30 84 1 3 4
M  V30 85 1 8 9
M  V30 86 1 8 6
M  V30 87 1 4 5
M  V30 88 2 4 6
M  V30 89 1 6 7
M  V30 90 9 78 1
M  V30 91 9 81 1
M  V30 END BOND
M  V30 END CTAB
M  END
