
     RDKit          3D

  0  0  0  0  0  0  0  0  0  0999 V3000
M  V30 BEGIN CTAB
M  V30 COUNTS 87 91 0 0 0
M  V30 BEGIN ATOM
M  V30 1 Fe -0.006780 -0.475640 0.020590 0 VAL=6
M  V30 2 C 2.379600 0.306000 1.763400 0
M  V30 3 C 1.166500 0.385800 2.628900 0
M  V30 4 C 1.201800 0.550200 4.017900 0
M  V30 5 H 2.147100 0.602000 4.545300 0
M  V30 6 C -0.004300 0.639800 4.711700 0
M  V30 7 H -0.006000 0.760800 5.790600 0
M  V30 8 C -1.207800 0.574100 4.011500 0
M  V30 9 H -2.154800 0.644600 4.533500 0
M  V30 10 C -1.168400 0.408500 2.622400 0
M  V30 11 C -2.377900 0.348300 1.751100 0
M  V30 12 C 3.734800 0.504000 2.387300 0
M  V30 13 H 4.516500 0.470500 1.628000 0
M  V30 14 H 3.921700 -0.291700 3.119400 0
M  V30 15 H 3.791300 1.461700 2.916100 0
M  V30 16 C -3.735200 0.550200 2.369500 0
M  V30 17 H -3.785200 1.499200 2.914400 0
M  V30 18 H -3.936200 -0.256200 3.085900 0
M  V30 19 H -4.511700 0.538100 1.604200 0
M  V30 20 C 3.176200 0.142200 -0.476100 0
M  V30 21 C 3.549500 1.406300 -0.985700 0
M  V30 22 C 4.532400 1.432800 -1.982100 0
M  V30 23 H 4.846400 2.390600 -2.386800 0
M  V30 24 C 5.107700 0.261100 -2.467300 0
M  V30 25 H 5.870700 0.308700 -3.239600 0
M  V30 26 C 4.691500 -0.971600 -1.971200 0
M  V30 27 H 5.130400 -1.885300 -2.361500 0
M  V30 28 C 3.710200 -1.059600 -0.978100 0
M  V30 29 C 2.928100 2.712900 -0.498400 0
M  V30 30 H 2.083800 2.469100 0.152100 0
M  V30 31 C 3.945700 3.543900 0.308400 0
M  V30 32 H 4.354400 2.984100 1.156600 0
M  V30 33 H 3.477200 4.457100 0.695000 0
M  V30 34 H 4.790500 3.843500 -0.323300 0
M  V30 35 C 2.352100 3.546700 -1.658200 0
M  V30 36 H 3.139300 3.883300 -2.343300 0
M  V30 37 H 1.857000 4.441200 -1.260500 0
M  V30 38 H 1.615100 2.970900 -2.222300 0
M  V30 39 C 3.259300 -2.415400 -0.453000 0
M  V30 40 H 2.433300 -2.248300 0.243900 0
M  V30 41 C 2.719900 -3.305200 -1.586900 0
M  V30 42 H 1.859500 -2.823900 -2.060300 0
M  V30 43 H 2.385800 -4.266200 -1.183500 0
M  V30 44 H 3.488400 -3.500300 -2.344900 0
M  V30 45 C 4.390600 -3.110000 0.328000 0
M  V30 46 H 5.248600 -3.322700 -0.321300 0
M  V30 47 H 4.038300 -4.061400 0.743200 0
M  V30 48 H 4.748800 -2.485700 1.156600 0
M  V30 49 C -3.168200 0.189300 -0.491000 0
M  V30 50 C -3.742700 -1.010200 -0.951200 0
M  V30 51 C -4.719600 -0.921600 -1.948800 0
M  V30 52 H -5.188300 -1.832500 -2.310300 0
M  V30 53 C -5.093900 0.307500 -2.485600 0
M  V30 54 H -5.854600 0.355200 -3.260200 0
M  V30 55 C -4.481100 1.475200 -2.037500 0
M  V30 56 H -4.765300 2.429500 -2.471400 0
M  V30 57 C -3.499000 1.447400 -1.040500 0
M  V30 58 C -3.336500 -2.362000 -0.380700 0
M  V30 59 H -2.506100 -2.200100 0.312100 0
M  V30 60 C -2.822800 -3.304900 -1.483300 0
M  V30 61 H -3.599800 -3.511900 -2.229500 0
M  V30 62 H -2.507100 -4.257700 -1.046100 0
M  V30 63 H -1.955800 -2.859400 -1.978800 0
M  V30 64 C -4.491900 -2.994800 0.417400 0
M  V30 65 H -5.354800 -3.199500 -0.227900 0
M  V30 66 H -4.831800 -2.334200 1.225200 0
M  V30 67 H -4.172400 -3.944100 0.863100 0
M  V30 68 C -2.839300 2.744400 -0.579200 0
M  V30 69 H -1.984800 2.485700 0.052000 0
M  V30 70 C -3.821100 3.596400 0.249600 0
M  V30 71 H -4.679900 3.902000 -0.360200 0
M  V30 72 H -3.329300 4.505800 0.615900 0
M  V30 73 H -4.212000 3.048100 1.113700 0
M  V30 74 C -2.275100 3.562400 -1.755000 0
M  V30 75 H -3.069500 3.910200 -2.426100 0
M  V30 76 H -1.559100 2.971000 -2.330100 0
M  V30 77 H -1.755500 4.449500 -1.372600 0
M  V30 78 N -2.149400 0.125800 0.509400 0
M  V30 79 N 0.000200 0.326700 1.971600 0
M  V30 80 N 2.155900 0.075000 0.522200 0
M  V30 81 O 0.043400 1.276500 -0.903300 0
M  V30 82 O 0.034100 1.246400 -2.215800 0
M  V30 83 O -0.058300 -1.331000 -1.545400 0
M  V30 84 H -0.032900 -0.609900 -2.215300 0
M  V30 85 N -0.037900 -2.137200 1.027400 0
M  V30 86 N -0.015800 -3.237500 0.502700 0 CHG=1 VAL=4
M  V30 87 N -0.000900 -4.315600 0.101700 0 CHG=-1 VAL=2
M  V30 END ATOM
M  V30 BEGIN BOND
M  V30 1 1 54 53
M  V30 2 1 25 24
M  V30 3 2 53 55
M  V30 4 1 53 51
M  V30 5 1 56 55
M  V30 6 1 24 22
M  V30 7 2 24 26
M  V30 8 1 75 74
M  V30 9 1 23 22
M  V30 10 1 27 26
M  V30 11 1 44 41
M  V30 12 1 36 35
M  V30 13 1 76 74
M  V30 14 1 52 51
M  V30 15 1 61 60
M  V30 16 1 38 35
M  V30 17 2 82 81
M  V30 18 1 84 83
M  V30 19 1 42 41
M  V30 20 1 55 57
M  V30 21 2 22 21
M  V30 22 1 63 60
M  V30 23 1 26 28
M  V30 24 2 51 50
M  V30 25 1 74 77
M  V30 26 1 74 68
M  V30 27 1 35 37
M  V30 28 1 35 29
M  V30 29 1 41 43
M  V30 30 1 41 39
M  V30 31 1 60 62
M  V30 32 1 60 58
M  V30 33 1 57 68
M  V30 34 2 57 49
M  V30 35 1 21 29
M  V30 36 1 21 20
M  V30 37 2 28 20
M  V30 38 1 28 39
M  V30 39 1 50 49
M  V30 40 1 50 58
M  V30 41 1 68 69
M  V30 42 1 68 70
M  V30 43 1 29 30
M  V30 44 1 29 31
M  V30 45 1 49 78
M  V30 46 1 20 80
M  V30 47 1 39 40
M  V30 48 1 39 45
M  V30 49 1 58 59
M  V30 50 1 58 64
M  V30 51 1 71 70
M  V30 52 1 34 31
M  V30 53 1 46 45
M  V30 54 1 65 64
M  V30 55 2 87 86
M  V30 56 1 70 72
M  V30 57 1 70 73
M  V30 58 1 31 33
M  V30 59 1 31 32
M  V30 60 1 45 47
M  V30 61 1 45 48
M  V30 62 1 64 67
M  V30 63 1 64 66
M  V30 64 2 86 85
M  V30 65 2 78 11 CFG=2
M  V30 66 2 80 2 CFG=2
M  V30 67 1 19 16
M  V30 68 1 13 12
M  V30 69 1 11 16
M  V30 70 1 11 10
M  V30 71 1 2 12
M  V30 72 1 2 3
M  V30 73 2 79 10
M  V30 74 1 79 3
M  V30 75 1 16 17
M  V30 76 1 16 18
M  V30 77 1 12 15
M  V30 78 1 12 14
M  V30 79 1 10 8
M  V30 80 2 3 4
M  V30 81 1 8 9
M  V30 82 2 8 6
M  V30 83 1 4 5
M  V30 84 1 4 6
M  V30 85 1 6 7
M  V30 86 1 1 83
M  V30 87 1 1 85
M  V30 88 9 78 1
M  V30 89 9 79 1
M  V30 90 9 80 1
M  V30 91 9 81 1
M  V30 END BOND
M  V30 END CTAB
M  END
