
     RDKit          3D

  0  0  0  0  0  0  0  0  0  0999 V3000
M  V30 BEGIN CTAB
M  V30 COUNTS 85 89 0 0 0
M  V30 BEGIN ATOM
M  V30 1 Fe -0.000550 -0.275160 -0.246620 0 VAL=6
M  V30 2 C 2.387250 -0.074920 1.712090 0
M  V30 3 C 1.168340 -0.209140 2.565370 0
M  V30 4 C 1.204430 -0.441930 3.944000 0
M  V30 5 H 2.149640 -0.541340 4.463980 0
M  V30 6 C -0.000860 -0.558340 4.634360 0
M  V30 7 H -0.001450 -0.748130 5.703350 0
M  V30 8 C -1.205350 -0.436030 3.943750 0
M  V30 9 H -2.151160 -0.530890 4.463510 0
M  V30 10 C -1.167960 -0.203270 2.565080 0
M  V30 11 C -2.386050 -0.063130 1.711700 0
M  V30 12 C 3.741840 -0.118820 2.366320 0
M  V30 13 H 4.528310 0.057050 1.631810 0
M  V30 14 H 3.896660 -1.109160 2.812990 0
M  V30 15 H 3.825180 0.624680 3.166360 0
M  V30 16 C -3.741420 -0.108410 2.364290 0
M  V30 17 H -3.823650 0.628570 3.170450 0
M  V30 18 H -3.899630 -1.102070 2.802330 0
M  V30 19 H -4.526550 0.075800 1.630360 0
M  V30 20 C 3.208100 0.350350 -0.484880 0
M  V30 21 C 3.573190 1.702160 -0.679330 0
M  V30 22 C 4.548450 1.974770 -1.645750 0
M  V30 23 H 4.858110 3.003070 -1.807790 0
M  V30 24 C 5.124480 0.958080 -2.403530 0
M  V30 25 H 5.876450 1.195940 -3.151170 0
M  V30 26 C 4.729280 -0.361530 -2.203660 0
M  V30 27 H 5.172770 -1.153630 -2.800330 0
M  V30 28 C 3.764100 -0.695080 -1.246800 0
M  V30 29 C 2.970400 2.844030 0.135860 0
M  V30 30 H 2.094960 2.459070 0.666700 0
M  V30 31 C 3.980030 3.364200 1.179270 0
M  V30 32 H 4.326260 2.568930 1.847470 0
M  V30 33 H 3.530280 4.154650 1.792440 0
M  V30 34 H 4.863860 3.784270 0.684290 0
M  V30 35 C 2.473500 4.003830 -0.746070 0
M  V30 36 H 3.299270 4.496970 -1.272000 0
M  V30 37 H 1.984460 4.761020 -0.121210 0
M  V30 38 H 1.748500 3.652400 -1.483440 0
M  V30 39 C 3.345900 -2.143510 -1.045860 0
M  V30 40 H 2.604560 -2.180750 -0.245200 0
M  V30 41 C 2.653480 -2.702750 -2.301430 0
M  V30 42 H 1.772280 -2.102860 -2.545460 0
M  V30 43 H 2.320930 -3.729860 -2.115070 0
M  V30 44 H 3.334570 -2.711060 -3.162410 0
M  V30 45 C 4.536460 -3.018830 -0.613660 0
M  V30 46 H 5.304110 -3.073530 -1.395240 0
M  V30 47 H 4.196140 -4.040040 -0.407350 0
M  V30 48 H 5.014190 -2.627710 0.293630 0
M  V30 49 C -3.204910 0.369010 -0.484520 0
M  V30 50 C -3.776310 -0.676350 -1.234780 0
M  V30 51 C -4.740950 -0.339100 -2.191080 0
M  V30 52 H -5.195930 -1.130730 -2.779690 0
M  V30 53 C -5.121000 0.983400 -2.400800 0
M  V30 54 H -5.872920 1.223810 -3.147660 0
M  V30 55 C -4.529870 1.999720 -1.654050 0
M  V30 56 H -4.828070 3.030160 -1.823620 0
M  V30 57 C -3.554060 1.723310 -0.689440 0
M  V30 58 C -3.373310 -2.127890 -1.024880 0
M  V30 59 H -2.631380 -2.168150 -0.224890 0
M  V30 60 C -2.687890 -2.701560 -2.277870 0
M  V30 61 H -3.370140 -2.707730 -3.137960 0
M  V30 62 H -2.365700 -3.730970 -2.086010 0
M  V30 63 H -1.801090 -2.111840 -2.526300 0
M  V30 64 C -4.572450 -2.988380 -0.586720 0
M  V30 65 H -5.341090 -3.040150 -1.367490 0
M  V30 66 H -5.045750 -2.587060 0.318450 0
M  V30 67 H -4.242440 -4.011770 -0.374500 0
M  V30 68 C -2.934490 2.862020 0.117330 0
M  V30 69 H -2.053320 2.472010 0.634890 0
M  V30 70 C -3.926510 3.384150 1.176510 0
M  V30 71 H -4.817240 3.805710 0.695280 0
M  V30 72 H -3.465730 4.173530 1.782840 0
M  V30 73 H -4.263530 2.589230 1.849870 0
M  V30 74 C -2.445460 4.021160 -0.769440 0
M  V30 75 H -3.276420 4.521300 -1.280370 0
M  V30 76 H -1.734620 3.667320 -1.519440 0
M  V30 77 H -1.941280 4.773370 -0.150690 0
M  V30 78 N -2.168060 0.068610 0.456330 0
M  V30 79 N 0.000590 -0.086410 1.918320 0
M  V30 80 N 2.170710 0.051700 0.455910 0
M  V30 81 O 0.016190 1.645960 -0.580710 0
M  V30 82 O 0.007540 2.092530 -1.788010 0
M  V30 83 O -0.016460 -0.582950 -1.995900 0
M  V30 84 H -0.014040 0.296650 -2.436340 0
M  V30 85 Br -0.009920 -2.760880 0.402210 0
M  V30 END ATOM
M  V30 BEGIN BOND
M  V30 1 1 44 41
M  V30 2 1 25 24
M  V30 3 1 54 53
M  V30 4 1 61 60
M  V30 5 1 27 26
M  V30 6 1 52 51
M  V30 7 1 42 41
M  V30 8 1 63 60
M  V30 9 1 84 83
M  V30 10 2 24 26
M  V30 11 1 24 22
M  V30 12 1 53 51
M  V30 13 2 53 55
M  V30 14 1 41 43
M  V30 15 1 41 39
M  V30 16 1 60 62
M  V30 17 1 60 58
M  V30 18 1 26 28
M  V30 19 2 51 50
M  V30 20 1 83 1
M  V30 21 1 56 55
M  V30 22 1 23 22
M  V30 23 2 82 81
M  V30 24 1 55 57
M  V30 25 2 22 21
M  V30 26 1 76 74
M  V30 27 1 38 35
M  V30 28 1 46 45
M  V30 29 1 65 64
M  V30 30 1 75 74
M  V30 31 1 36 35
M  V30 32 1 28 39
M  V30 33 2 28 20
M  V30 34 1 50 58
M  V30 35 1 50 49
M  V30 36 1 39 45
M  V30 37 1 39 40
M  V30 38 1 58 64
M  V30 39 1 58 59
M  V30 40 1 74 77
M  V30 41 1 74 68
M  V30 42 1 35 37
M  V30 43 1 35 29
M  V30 44 2 57 49
M  V30 45 1 57 68
M  V30 46 1 21 20
M  V30 47 1 21 29
M  V30 48 1 45 47
M  V30 49 1 45 48
M  V30 50 1 64 67
M  V30 51 1 64 66
M  V30 52 1 20 80
M  V30 53 1 49 78
M  V30 54 1 1 85
M  V30 55 1 1 80
M  V30 56 1 1 79
M  V30 57 1 68 69
M  V30 58 1 68 70
M  V30 59 1 29 30
M  V30 60 1 29 31
M  V30 61 1 80 2
M  V30 62 2 78 11
M  V30 63 1 34 31
M  V30 64 1 71 70
M  V30 65 1 70 72
M  V30 66 1 70 73
M  V30 67 1 31 33
M  V30 68 1 31 32
M  V30 69 1 19 16
M  V30 70 1 13 12
M  V30 71 1 11 16
M  V30 72 1 11 10
M  V30 73 1 2 12
M  V30 74 2 2 3
M  V30 75 1 79 10
M  V30 76 1 79 3
M  V30 77 1 16 18
M  V30 78 1 16 17
M  V30 79 1 12 14
M  V30 80 1 12 15
M  V30 81 2 10 8
M  V30 82 1 3 4
M  V30 83 1 8 9
M  V30 84 1 8 6
M  V30 85 1 4 5
M  V30 86 2 4 6
M  V30 87 1 6 7
M  V30 88 9 78 1
M  V30 89 9 81 1
M  V30 END BOND
M  V30 END CTAB
M  END
