
     RDKit          3D

  0  0  0  0  0  0  0  0  0  0999 V3000
M  V30 BEGIN CTAB
M  V30 COUNTS 85 89 0 0 0
M  V30 BEGIN ATOM
M  V30 1 Fe -0.039860 0.196420 -0.061190 0 VAL=6
M  V30 2 C -2.392680 -0.502710 1.753270 0
M  V30 3 C -1.162670 -0.635600 2.591260 0
M  V30 4 C -1.182650 -0.924190 3.960790 0
M  V30 5 H -2.119500 -1.091860 4.478600 0
M  V30 6 C 0.027940 -0.981820 4.649520 0
M  V30 7 H 0.041380 -1.199180 5.713150 0
M  V30 8 C 1.220600 -0.753860 3.965660 0
M  V30 9 H 2.168870 -0.788670 4.488270 0
M  V30 10 C 1.167540 -0.481430 2.592810 0
M  V30 11 C 2.375050 -0.233620 1.749170 0
M  V30 12 C -3.734800 -0.752640 2.388410 0
M  V30 13 H -4.534370 -0.622140 1.659080 0
M  V30 14 H -3.898690 -0.056510 3.219670 0
M  V30 15 H -3.785260 -1.771500 2.790180 0
M  V30 16 C 3.714970 -0.139200 2.430480 0
M  V30 17 H 3.941080 -1.057640 2.983370 0
M  V30 18 H 3.705060 0.688810 3.149670 0
M  V30 19 H 4.506910 0.037520 1.703030 0
M  V30 20 C -3.286370 0.028020 -0.386420 0
M  V30 21 C -3.781060 -1.074840 -1.109180 0
M  V30 22 C -4.824060 -0.839680 -2.013150 0
M  V30 23 H -5.225110 -1.673560 -2.582400 0
M  V30 24 C -5.347230 0.436560 -2.200880 0
M  V30 25 H -6.157030 0.594940 -2.908020 0
M  V30 26 C -4.820580 1.511460 -1.488900 0
M  V30 27 H -5.221740 2.508900 -1.645180 0
M  V30 28 C -3.774100 1.335600 -0.577960 0
M  V30 29 C -3.210930 -2.478610 -0.951590 0
M  V30 30 H -2.388500 -2.439350 -0.234080 0
M  V30 31 C -4.267340 -3.459150 -0.408730 0
M  V30 32 H -4.674670 -3.120420 0.552000 0
M  V30 33 H -3.827440 -4.452850 -0.261980 0
M  V30 34 H -5.108350 -3.566770 -1.103960 0
M  V30 35 C -2.606080 -2.978810 -2.276260 0
M  V30 36 H -3.375270 -3.088050 -3.050410 0
M  V30 37 H -2.131230 -3.955860 -2.129110 0
M  V30 38 H -1.843570 -2.284130 -2.637460 0
M  V30 39 C -3.199360 2.524790 0.179490 0
M  V30 40 H -2.322340 2.187220 0.736930 0
M  V30 41 C -2.697300 3.613970 -0.785620 0
M  V30 42 H -1.983750 3.190100 -1.499890 0
M  V30 43 H -2.200010 4.413640 -0.222800 0
M  V30 44 H -3.518280 4.068480 -1.353260 0
M  V30 45 C -4.219490 3.088410 1.185720 0
M  V30 46 H -5.117160 3.461540 0.677490 0
M  V30 47 H -3.782510 3.919890 1.751710 0
M  V30 48 H -4.540580 2.320990 1.901400 0
M  V30 49 C 3.251660 0.133960 -0.426660 0
M  V30 50 C 3.623990 1.460360 -0.725740 0
M  V30 51 C 4.664830 1.652670 -1.641510 0
M  V30 52 H 4.970590 2.666570 -1.883690 0
M  V30 53 C 5.310790 0.576160 -2.241350 0
M  V30 54 H 6.116520 0.748200 -2.949970 0
M  V30 55 C 4.918750 -0.723360 -1.931720 0
M  V30 56 H 5.426060 -1.560850 -2.400990 0
M  V30 57 C 3.880410 -0.976950 -1.028160 0
M  V30 58 C 2.956060 2.661760 -0.070010 0
M  V30 59 H 2.126790 2.308560 0.546420 0
M  V30 60 C 2.332720 3.601380 -1.118190 0
M  V30 61 H 3.093810 4.054170 -1.765400 0
M  V30 62 H 1.795790 4.416280 -0.616600 0
M  V30 63 H 1.625360 3.055090 -1.749770 0
M  V30 64 C 3.943850 3.415740 0.840270 0
M  V30 65 H 4.783000 3.829450 0.267590 0
M  V30 66 H 4.363550 2.756930 1.610610 0
M  V30 67 H 3.438620 4.248470 1.344110 0
M  V30 68 C 3.495750 -2.413850 -0.693940 0
M  V30 69 H 2.527370 -2.396620 -0.188320 0
M  V30 70 C 4.526860 -3.050920 0.259260 0
M  V30 71 H 5.516910 -3.090430 -0.211120 0
M  V30 72 H 4.233470 -4.076320 0.515140 0
M  V30 73 H 4.628700 -2.484090 1.191010 0
M  V30 74 C 3.326080 -3.281740 -1.953350 0
M  V30 75 H 4.286440 -3.469300 -2.448660 0
M  V30 76 H 2.653090 -2.802310 -2.667450 0
M  V30 77 H 2.899260 -4.253620 -1.681090 0
M  V30 78 N 2.169130 -0.092060 0.490720 0
M  V30 79 N -0.004660 -0.435850 1.950000 0
M  V30 80 N -2.204250 -0.160000 0.533290 0
M  V30 81 O -0.164920 -1.702070 -0.566140 0
M  V30 82 O 0.565880 -2.102550 -1.545490 0
M  V30 83 O -0.041580 1.909320 0.646250 0
M  V30 84 H -0.157110 2.532030 -0.091260 0
M  V30 85 Cl -0.228450 0.942220 -2.211850 0
M  V30 END ATOM
M  V30 BEGIN BOND
M  V30 1 1 36 35
M  V30 2 1 54 53
M  V30 3 1 25 24
M  V30 4 1 76 74
M  V30 5 1 38 35
M  V30 6 1 23 22
M  V30 7 1 75 74
M  V30 8 1 56 55
M  V30 9 1 35 37
M  V30 10 1 35 29
M  V30 11 2 53 55
M  V30 12 1 53 51
M  V30 13 1 85 1
M  V30 14 1 24 22
M  V30 15 2 24 26
M  V30 16 2 22 21
M  V30 17 1 74 77
M  V30 18 1 74 68
M  V30 19 1 55 57
M  V30 20 1 52 51
M  V30 21 1 61 60
M  V30 22 1 63 60
M  V30 23 1 27 26
M  V30 24 2 51 50
M  V30 25 2 82 81
M  V30 26 1 42 41
M  V30 27 1 26 28
M  V30 28 1 44 41
M  V30 29 1 60 62
M  V30 30 1 60 58
M  V30 31 1 21 29
M  V30 32 1 21 20
M  V30 33 1 34 31
M  V30 34 1 57 68
M  V30 35 2 57 49
M  V30 36 1 29 31
M  V30 37 1 29 30
M  V30 38 1 41 43
M  V30 39 1 41 39
M  V30 40 1 50 49
M  V30 41 1 50 58
M  V30 42 1 68 69
M  V30 43 1 68 70
M  V30 44 2 28 20
M  V30 45 1 28 39
M  V30 46 1 49 78
M  V30 47 1 31 33
M  V30 48 1 31 32
M  V30 49 1 20 80
M  V30 50 1 71 70
M  V30 51 1 84 83
M  V30 52 1 58 59
M  V30 53 1 58 64
M  V30 54 1 1 80
M  V30 55 1 1 83
M  V30 56 1 1 79
M  V30 57 1 39 40
M  V30 58 1 39 45
M  V30 59 1 70 72
M  V30 60 1 70 73
M  V30 61 1 65 64
M  V30 62 2 78 11
M  V30 63 1 80 2
M  V30 64 1 46 45
M  V30 65 1 64 67
M  V30 66 1 64 66
M  V30 67 1 45 47
M  V30 68 1 45 48
M  V30 69 1 13 12
M  V30 70 1 19 16
M  V30 71 1 11 16
M  V30 72 1 11 10
M  V30 73 1 2 12
M  V30 74 2 2 3
M  V30 75 1 79 3
M  V30 76 1 79 10
M  V30 77 1 12 15
M  V30 78 1 12 14
M  V30 79 1 16 17
M  V30 80 1 16 18
M  V30 81 1 3 4
M  V30 82 2 10 8
M  V30 83 1 4 5
M  V30 84 2 4 6
M  V30 85 1 8 9
M  V30 86 1 8 6
M  V30 87 1 6 7
M  V30 88 9 78 1
M  V30 89 9 81 1
M  V30 END BOND
M  V30 END CTAB
M  END
