
     RDKit          3D

  0  0  0  0  0  0  0  0  0  0999 V3000
M  V30 BEGIN CTAB
M  V30 COUNTS 87 91 0 0 0
M  V30 BEGIN ATOM
M  V30 1 Fe -0.018520 -0.306310 -0.147670 0 VAL=6
M  V30 2 C -2.312300 1.068600 -1.631300 0
M  V30 3 C -1.069100 1.374200 -2.400500 0
M  V30 4 C -1.062400 2.026000 -3.639200 0
M  V30 5 H -1.986300 2.371000 -4.088100 0
M  V30 6 C 0.155600 2.209700 -4.291000 0
M  V30 7 H 0.189600 2.703700 -5.257200 0
M  V30 8 C 1.329400 1.751100 -3.695900 0
M  V30 9 H 2.284100 1.880400 -4.191400 0
M  V30 10 C 1.250600 1.124000 -2.446500 0
M  V30 11 C 2.441300 0.633700 -1.689400 0
M  V30 12 C -3.635700 1.571300 -2.143100 0
M  V30 13 H -4.441800 1.275600 -1.471100 0
M  V30 14 H -3.839400 1.160800 -3.139300 0
M  V30 15 H -3.626800 2.664200 -2.227200 0
M  V30 16 C 3.794300 0.701900 -2.346500 0
M  V30 17 H 4.043000 1.725500 -2.646700 0
M  V30 18 H 3.790900 0.080900 -3.251000 0
M  V30 19 H 4.567400 0.334100 -1.671500 0
M  V30 20 C -3.216000 -0.039400 0.279600 0
M  V30 21 C -3.634400 0.815300 1.318100 0
M  V30 22 C -4.658200 0.356500 2.156300 0
M  V30 23 H -5.002800 0.995500 2.964200 0
M  V30 24 C -5.228400 -0.901000 1.983100 0
M  V30 25 H -6.019200 -1.236200 2.648700 0
M  V30 26 C -4.771600 -1.735900 0.965200 0
M  V30 27 H -5.210800 -2.721600 0.840400 0
M  V30 28 C -3.749800 -1.331700 0.101100 0
M  V30 29 C -3.012800 2.187900 1.548100 0
M  V30 30 H -2.171100 2.303800 0.861200 0
M  V30 31 C -4.027800 3.310600 1.259000 0
M  V30 32 H -4.417400 3.250900 0.235500 0
M  V30 33 H -3.560300 4.294100 1.389500 0
M  V30 34 H -4.884400 3.254500 1.941400 0
M  V30 35 C -2.431000 2.315700 2.967700 0
M  V30 36 H -3.215000 2.251600 3.731700 0
M  V30 37 H -1.931600 3.285400 3.079600 0
M  V30 38 H -1.696900 1.530000 3.159000 0
M  V30 39 C -3.256200 -2.248200 -1.011000 0
M  V30 40 H -2.350800 -1.810100 -1.439100 0
M  V30 41 C -2.850300 -3.633700 -0.479500 0
M  V30 42 H -2.091800 -3.530300 0.302600 0
M  V30 43 H -2.432000 -4.238000 -1.293900 0
M  V30 44 H -3.703800 -4.183800 -0.065500 0
M  V30 45 C -4.307800 -2.362100 -2.130800 0
M  V30 46 H -5.235800 -2.812400 -1.757400 0
M  V30 47 H -3.933700 -2.987400 -2.950400 0
M  V30 48 H -4.561800 -1.377200 -2.542400 0
M  V30 49 C 3.246800 -0.243700 0.370900 0
M  V30 50 C 3.608600 -1.604200 0.409300 0
M  V30 51 C 4.595200 -1.989900 1.324100 0
M  V30 52 H 4.894600 -3.033400 1.367700 0
M  V30 53 C 5.195400 -1.063800 2.171900 0
M  V30 54 H 5.959300 -1.382900 2.875800 0
M  V30 55 C 4.811500 0.274400 2.118600 0
M  V30 56 H 5.283100 0.991200 2.783900 0
M  V30 57 C 3.825900 0.717100 1.229900 0
M  V30 58 C 2.979500 -2.632000 -0.522700 0
M  V30 59 H 2.209300 -2.137400 -1.119700 0
M  V30 60 C 2.262000 -3.743000 0.265300 0
M  V30 61 H 2.959800 -4.315400 0.888600 0
M  V30 62 H 1.783200 -4.445200 -0.429000 0
M  V30 63 H 1.487600 -3.316600 0.910600 0
M  V30 64 C 4.025800 -3.214800 -1.491200 0
M  V30 65 H 4.810700 -3.761500 -0.954500 0
M  V30 66 H 4.513600 -2.424500 -2.075200 0
M  V30 67 H 3.551000 -3.911800 -2.192000 0
M  V30 68 C 3.446300 2.195000 1.177600 0
M  V30 69 H 2.502600 2.281600 0.631300 0
M  V30 70 C 4.523300 3.004400 0.426200 0
M  V30 71 H 5.480500 2.959100 0.959700 0
M  V30 72 H 4.230700 4.058700 0.348600 0
M  V30 73 H 4.695300 2.623600 -0.585700 0
M  V30 74 C 3.206900 2.804400 2.570400 0
M  V30 75 H 4.122000 2.816200 3.174400 0
M  V30 76 H 2.432000 2.252400 3.105200 0
M  V30 77 H 2.873800 3.843900 2.463700 0
M  V30 78 N 2.204900 0.168700 -0.519500 0
M  V30 79 N 0.071500 0.958200 -1.834800 0
M  V30 80 N -2.145100 0.363300 -0.576600 0
M  V30 81 O -0.038900 1.171700 1.090400 0
M  V30 82 O 0.775200 0.916300 2.083500 0
M  V30 83 O 0.015200 -1.639900 -1.422200 0
M  V30 84 H -0.149800 -2.469900 -0.942800 0
M  V30 85 N -0.449400 -1.642700 1.162800 0
M  V30 86 N -0.835500 -1.367700 2.285800 0 CHG=1 VAL=4
M  V30 87 N -1.214500 -1.180700 3.355200 0 CHG=-1 VAL=2
M  V30 END ATOM
M  V30 BEGIN BOND
M  V30 1 1 7 6
M  V30 2 1 6 8
M  V30 3 2 6 4
M  V30 4 1 9 8
M  V30 5 1 5 4
M  V30 6 2 8 10
M  V30 7 1 4 3
M  V30 8 1 18 16
M  V30 9 1 14 12
M  V30 10 1 47 45
M  V30 11 1 17 16
M  V30 12 1 48 45
M  V30 13 1 10 79
M  V30 14 1 10 11
M  V30 15 2 3 79
M  V30 16 1 3 2
M  V30 17 1 16 11
M  V30 18 1 16 19
M  V30 19 1 15 12
M  V30 20 1 67 64
M  V30 21 1 12 2
M  V30 22 1 12 13
M  V30 23 1 45 46
M  V30 24 1 45 39
M  V30 25 1 66 64
M  V30 26 2 11 78 CFG=2
M  V30 27 2 2 80 CFG=2
M  V30 28 1 64 65
M  V30 29 1 64 58
M  V30 30 1 40 39
M  V30 31 1 83 84
M  V30 32 1 43 41
M  V30 33 1 59 58
M  V30 34 1 39 41
M  V30 35 1 39 28
M  V30 36 1 73 70
M  V30 37 1 80 20
M  V30 38 1 58 60
M  V30 39 1 58 50
M  V30 40 1 78 49
M  V30 41 1 41 44
M  V30 42 1 41 42
M  V30 43 1 62 60
M  V30 44 1 28 20
M  V30 45 2 28 26
M  V30 46 1 32 31
M  V30 47 1 60 61
M  V30 48 1 60 63
M  V30 49 2 20 21
M  V30 50 1 72 70
M  V30 51 2 49 50
M  V30 52 1 49 57
M  V30 53 1 50 51
M  V30 54 1 70 71
M  V30 55 1 70 68
M  V30 56 1 69 68
M  V30 57 1 27 26
M  V30 58 1 30 29
M  V30 59 1 26 24
M  V30 60 2 81 82
M  V30 61 2 85 86
M  V30 62 1 68 57
M  V30 63 1 68 74
M  V30 64 2 57 55
M  V30 65 1 31 33
M  V30 66 1 31 29
M  V30 67 1 31 34
M  V30 68 1 21 29
M  V30 69 1 21 22
M  V30 70 1 51 52
M  V30 71 2 51 53
M  V30 72 1 29 35
M  V30 73 2 24 22
M  V30 74 1 24 25
M  V30 75 1 55 53
M  V30 76 1 55 56
M  V30 77 1 22 23
M  V30 78 1 53 54
M  V30 79 2 86 87
M  V30 80 1 77 74
M  V30 81 1 74 76
M  V30 82 1 74 75
M  V30 83 1 35 37
M  V30 84 1 35 38
M  V30 85 1 35 36
M  V30 86 1 1 83
M  V30 87 1 1 85
M  V30 88 9 78 1
M  V30 89 9 79 1
M  V30 90 9 80 1
M  V30 91 9 81 1
M  V30 END BOND
M  V30 END CTAB
M  END
