
     RDKit          3D

  0  0  0  0  0  0  0  0  0  0999 V3000
M  V30 BEGIN CTAB
M  V30 COUNTS 85 89 0 0 0
M  V30 BEGIN ATOM
M  V30 1 Fe -0.075200 0.417790 0.078530 0 VAL=6
M  V30 2 C -2.382860 -0.842270 1.597840 0
M  V30 3 C -1.170850 -1.044020 2.443740 0
M  V30 4 C -1.202160 -1.536530 3.753340 0
M  V30 5 H -2.141080 -1.815220 4.217200 0
M  V30 6 C -0.001750 -1.651900 4.452320 0
M  V30 7 H 0.003200 -2.024070 5.472240 0
M  V30 8 C 1.192570 -1.283820 3.834360 0
M  V30 9 H 2.134340 -1.365150 4.364010 0
M  V30 10 C 1.150740 -0.808410 2.518470 0
M  V30 11 C 2.359300 -0.421660 1.733270 0
M  V30 12 C -3.727420 -1.271440 2.120520 0
M  V30 13 H -4.503080 -1.087490 1.376520 0
M  V30 14 H -3.974810 -0.712800 3.031480 0
M  V30 15 H -3.722640 -2.337880 2.373920 0
M  V30 16 C 3.713650 -0.554190 2.376080 0
M  V30 17 H 3.912220 -1.589650 2.673800 0
M  V30 18 H 3.753800 0.066120 3.279960 0
M  V30 19 H 4.496530 -0.227650 1.691140 0
M  V30 20 C -3.204970 -0.025980 -0.484790 0
M  V30 21 C -3.526490 -1.016360 -1.432550 0
M  V30 22 C -4.533690 -0.719570 -2.358300 0
M  V30 23 H -4.811800 -1.469010 -3.094090 0
M  V30 24 C -5.175330 0.516670 -2.357660 0
M  V30 25 H -5.954130 0.725850 -3.086190 0
M  V30 26 C -4.803070 1.491100 -1.434040 0
M  V30 27 H -5.287190 2.463680 -1.452770 0
M  V30 28 C -3.803620 1.247900 -0.486130 0
M  V30 29 C -2.815900 -2.364530 -1.466760 0
M  V30 30 H -1.996690 -2.337170 -0.743850 0
M  V30 31 C -3.773200 -3.504290 -1.069320 0
M  V30 32 H -4.207200 -3.337880 -0.075690 0
M  V30 33 H -3.244700 -4.465130 -1.054780 0
M  V30 34 H -4.603310 -3.589130 -1.781020 0
M  V30 35 C -2.165670 -2.630220 -2.836220 0
M  V30 36 H -2.912240 -2.675700 -3.638170 0
M  V30 37 H -1.636050 -3.590340 -2.817290 0
M  V30 38 H -1.437620 -1.850580 -3.074010 0
M  V30 39 C -3.364660 2.340230 0.480530 0
M  V30 40 H -2.553560 1.949590 1.101160 0
M  V30 41 C -2.767700 3.533420 -0.289180 0
M  V30 42 H -1.940930 3.184590 -0.913820 0
M  V30 43 H -2.392350 4.286380 0.415700 0
M  V30 44 H -3.515140 4.017420 -0.929790 0
M  V30 45 C -4.512460 2.772450 1.409800 0
M  V30 46 H -5.345560 3.207890 0.844650 0
M  V30 47 H -4.162600 3.527670 2.123730 0
M  V30 48 H -4.908330 1.922160 1.979490 0
M  V30 49 C 3.176430 0.270980 -0.397290 0
M  V30 50 C 3.477550 1.615220 -0.695300 0
M  V30 51 C 4.445980 1.868090 -1.671480 0
M  V30 52 H 4.696860 2.897480 -1.911700 0
M  V30 53 C 5.086680 0.827420 -2.338630 0
M  V30 54 H 5.834430 1.043290 -3.097050 0
M  V30 55 C 4.762230 -0.491810 -2.034920 0
M  V30 56 H 5.259740 -1.299400 -2.564280 0
M  V30 57 C 3.800840 -0.806820 -1.067530 0
M  V30 58 C 2.794180 2.767910 0.028520 0
M  V30 59 H 2.103970 2.351650 0.767390 0
M  V30 60 C 1.941960 3.606090 -0.943540 0
M  V30 61 H 2.557320 4.050160 -1.735480 0
M  V30 62 H 1.454490 4.427300 -0.401480 0
M  V30 63 H 1.165600 2.988440 -1.404820 0
M  V30 64 C 3.813830 3.637820 0.786380 0
M  V30 65 H 4.514970 4.129780 0.101480 0
M  V30 66 H 4.403310 3.038630 1.491350 0
M  V30 67 H 3.297020 4.421230 1.353300 0
M  V30 68 C 3.476990 -2.272420 -0.785090 0
M  V30 69 H 2.631530 -2.312740 -0.091660 0
M  V30 70 C 4.676920 -2.987330 -0.130300 0
M  V30 71 H 5.528500 -3.025020 -0.819930 0
M  V30 72 H 4.413840 -4.019900 0.129560 0
M  V30 73 H 5.016450 -2.481240 0.779320 0
M  V30 74 C 3.039170 -3.028570 -2.054470 0
M  V30 75 H 3.847780 -3.071100 -2.793880 0
M  V30 76 H 2.171580 -2.544680 -2.508220 0
M  V30 77 H 2.773240 -4.061600 -1.797600 0
M  V30 78 N 2.137940 0.006710 0.545670 0
M  V30 79 N -0.011750 -0.711040 1.860650 0
M  V30 80 N -2.169490 -0.287930 0.463310 0
M  V30 81 O 0.126120 -1.123940 -1.079270 0
M  V30 82 O 0.792520 -0.807750 -2.155390 0
M  V30 83 O -0.132790 1.846240 1.235600 0
M  V30 84 H -0.184810 2.623550 0.653580 0
M  V30 85 F -0.491860 1.481710 -1.308930 0
M  V30 END ATOM
M  V30 BEGIN BOND
M  V30 1 1 36 35
M  V30 2 1 54 53
M  V30 3 1 23 22
M  V30 4 1 25 24
M  V30 5 1 38 35
M  V30 6 1 35 37
M  V30 7 1 35 29
M  V30 8 1 75 74
M  V30 9 1 56 55
M  V30 10 1 76 74
M  V30 11 1 22 24
M  V30 12 2 22 21
M  V30 13 2 24 26
M  V30 14 2 53 55
M  V30 15 1 53 51
M  V30 16 2 82 81
M  V30 17 1 74 77
M  V30 18 1 74 68
M  V30 19 1 55 57
M  V30 20 1 52 51
M  V30 21 1 34 31
M  V30 22 1 61 60
M  V30 23 2 51 50
M  V30 24 1 29 21
M  V30 25 1 29 31
M  V30 26 1 29 30
M  V30 27 1 27 26
M  V30 28 1 26 28
M  V30 29 1 21 20
M  V30 30 1 63 60
M  V30 31 1 85 1
M  V30 32 1 31 33
M  V30 33 1 31 32
M  V30 34 1 57 68
M  V30 35 2 57 49
M  V30 36 1 60 62
M  V30 37 1 60 58
M  V30 38 1 44 41
M  V30 39 1 42 41
M  V30 40 1 71 70
M  V30 41 1 68 70
M  V30 42 1 68 69
M  V30 43 1 50 49
M  V30 44 1 50 58
M  V30 45 2 28 20
M  V30 46 1 28 39
M  V30 47 1 20 80
M  V30 48 1 49 78
M  V30 49 1 41 43
M  V30 50 1 41 39
M  V30 51 1 70 72
M  V30 52 1 70 73
M  V30 53 1 58 59
M  V30 54 1 58 64
M  V30 55 1 1 80
M  V30 56 1 1 83
M  V30 57 1 1 79
M  V30 58 1 65 64
M  V30 59 1 80 2
M  V30 60 1 39 40
M  V30 61 1 39 45
M  V30 62 2 78 11
M  V30 63 1 84 83
M  V30 64 1 64 67
M  V30 65 1 64 66
M  V30 66 1 46 45
M  V30 67 1 13 12
M  V30 68 1 45 48
M  V30 69 1 45 47
M  V30 70 1 2 12
M  V30 71 2 2 3
M  V30 72 1 19 16
M  V30 73 1 11 16
M  V30 74 1 11 10
M  V30 75 1 79 3
M  V30 76 1 79 10
M  V30 77 1 12 15
M  V30 78 1 12 14
M  V30 79 1 16 17
M  V30 80 1 16 18
M  V30 81 1 3 4
M  V30 82 2 10 8
M  V30 83 1 4 5
M  V30 84 2 4 6
M  V30 85 1 8 9
M  V30 86 1 8 6
M  V30 87 1 6 7
M  V30 88 9 78 1
M  V30 89 9 81 1
M  V30 END BOND
M  V30 END CTAB
M  END
