
     RDKit          3D

  0  0  0  0  0  0  0  0  0  0999 V3000
M  V30 BEGIN CTAB
M  V30 COUNTS 87 96 0 0 0
M  V30 BEGIN ATOM
M  V30 1 Fe -0.727130 -0.154480 -0.049070 0 VAL=6
M  V30 2 C -3.484540 -1.178380 -0.093910 0
M  V30 3 C -4.838490 -1.441420 0.088670 0
M  V30 4 C -5.498590 -0.870810 1.174950 0
M  V30 5 C -4.755730 -0.059080 2.042080 0
M  V30 6 C -3.392100 0.143050 1.827380 0
M  V30 7 C -2.608470 0.930770 2.807000 0
M  V30 8 C -1.419530 0.414980 3.338270 0
M  V30 9 C -0.712330 1.121510 4.307340 0
M  V30 10 C -1.177710 2.360470 4.751870 0
M  V30 11 C -2.359620 2.886310 4.224480 0
M  V30 12 C -3.074720 2.173200 3.262770 0
M  V30 13 C -2.776550 -1.596500 -1.369490 0
M  V30 14 C -2.714770 -0.329390 -2.203110 0
M  V30 15 C -3.706770 -0.024980 -3.127620 0
M  V30 16 C -3.693530 1.225490 -3.744860 0
M  V30 17 C -2.643480 2.102000 -3.440870 0
M  V30 18 C -1.652000 1.726190 -2.535150 0
M  V30 19 C -0.439580 2.557980 -2.371750 0
M  V30 20 C -0.517170 3.953650 -2.260580 0
M  V30 21 C 0.644960 4.722710 -2.200840 0
M  V30 22 C 1.897170 4.108500 -2.272880 0
M  V30 23 C 1.980870 2.718740 -2.388640 0
M  V30 24 C 0.823130 1.948000 -2.422420 0
M  V30 25 N -1.403660 -2.081860 -1.078550 0
M  V30 26 C -1.344030 -3.191630 -0.117020 0
M  V30 27 C -0.138000 -3.086970 0.801090 0
M  V30 28 C 0.594870 -4.202510 1.197980 0
M  V30 29 C 1.674410 -4.029890 2.069360 0
M  V30 30 C 1.976710 -2.746150 2.519940 0
M  V30 31 C 1.194350 -1.683420 2.071380 0
M  V30 32 N 0.164520 -1.847670 1.227850 0
M  V30 33 C -0.611730 -2.337350 -2.292290 0
M  V30 34 C 0.879420 -2.358160 -2.021960 0
M  V30 35 C 1.663980 -3.413430 -2.473730 0
M  V30 36 C 3.036740 -3.364600 -2.216640 0
M  V30 37 C 3.572770 -2.299420 -1.512280 0
M  V30 38 C 2.698340 -1.277820 -1.074340 0
M  V30 39 N 1.381090 -1.307700 -1.348200 0
M  V30 40 N 3.115590 -0.179750 -0.316120 0
M  V30 41 C 4.413570 0.088370 0.108940 0
M  V30 42 O 5.367120 -0.609500 -0.217140 0
M  V30 43 C 4.605320 1.304990 1.042040 0
M  V30 44 C 6.113270 1.455240 1.308340 0
M  V30 45 C 3.877320 1.043160 2.380480 0
M  V30 46 C 4.071900 2.596860 0.388260 0
M  V30 47 N -2.742780 -0.409710 0.757150 0
M  V30 48 N -1.711490 0.531580 -1.869190 0
M  V30 49 H -5.363150 -2.073390 -0.622810 0
M  V30 50 H -6.552180 -1.061150 1.354180 0
M  V30 51 H -5.218030 0.386820 2.916420 0
M  V30 52 H -1.059650 -0.540090 2.977430 0
M  V30 53 H 0.211680 0.710630 4.705390 0
M  V30 54 H -0.619060 2.917790 5.499110 0
M  V30 55 H -2.721760 3.855470 4.557340 0
M  V30 56 H -3.987730 2.587670 2.843180 0
M  V30 57 H -3.377960 -2.354590 -1.894380 0
M  V30 58 H -4.480470 -0.755760 -3.346220 0
M  V30 59 H -4.452190 1.497750 -4.471940 0
M  V30 60 H -2.550800 3.052830 -3.955110 0
M  V30 61 H -1.490930 4.432260 -2.196980 0
M  V30 62 H 0.572120 5.801870 -2.094580 0
M  V30 63 H 2.802660 4.707880 -2.228630 0
M  V30 64 H 2.949990 2.230820 -2.433940 0
M  V30 65 H 0.886040 0.866890 -2.480490 0
M  V30 66 H -2.242920 -3.144140 0.505520 0
M  V30 67 H -1.350620 -4.167330 -0.626540 0
M  V30 68 H 0.333870 -5.186160 0.818720 0
M  V30 69 H 2.270890 -4.882860 2.380030 0
M  V30 70 H 2.809760 -2.560990 3.190340 0
M  V30 71 H 1.385930 -0.657010 2.363820 0
M  V30 72 H -0.823540 -1.532080 -2.998900 0
M  V30 73 H -0.916940 -3.284610 -2.766330 0
M  V30 74 H 1.215350 -4.244470 -3.008960 0
M  V30 75 H 3.688900 -4.164610 -2.556690 0
M  V30 76 H 4.624670 -2.231170 -1.285540 0
M  V30 77 H 6.281300 2.314610 1.967480 0
M  V30 78 H 6.524650 0.560990 1.785090 0
M  V30 79 H 6.666030 1.615430 0.377780 0
M  V30 80 H 4.195620 0.088510 2.818580 0
M  V30 81 H 4.129080 1.838930 3.091420 0
M  V30 82 H 2.792430 1.044140 2.258460 0
M  V30 83 H 4.271070 3.445860 1.052970 0
M  V30 84 H 2.995570 2.567220 0.209030 0
M  V30 85 H 4.582300 2.789740 -0.563020 0
M  V30 86 H 2.352190 0.434540 -0.006340 0
M  V30 87 Cl 0.591380 1.559320 0.931420 0
M  V30 END ATOM
M  V30 BEGIN BOND
M  V30 1 1 59 16
M  V30 2 1 60 17
M  V30 3 1 16 17
M  V30 4 2 16 15
M  V30 5 2 17 18
M  V30 6 1 58 15
M  V30 7 1 15 14
M  V30 8 1 74 35
M  V30 9 1 72 33
M  V30 10 1 73 33
M  V30 11 1 75 36
M  V30 12 1 18 19
M  V30 13 1 18 48
M  V30 14 1 65 24
M  V30 15 2 35 36
M  V30 16 1 35 34
M  V30 17 1 64 23
M  V30 18 2 24 23
M  V30 19 1 24 19
M  V30 20 1 23 22
M  V30 21 2 19 20
M  V30 22 1 33 34
M  V30 23 1 33 25
M  V30 24 1 22 63
M  V30 25 2 22 21
M  V30 26 1 20 21
M  V30 27 1 20 61
M  V30 28 1 36 37
M  V30 29 2 14 48
M  V30 30 1 14 13
M  V30 31 1 21 62
M  V30 32 2 34 39
M  V30 33 1 57 13
M  V30 34 1 37 76
M  V30 35 2 37 38
M  V30 36 1 13 25
M  V30 37 1 13 2
M  V30 38 1 39 38
M  V30 39 1 25 26
M  V30 40 1 38 40
M  V30 41 1 67 26
M  V30 42 1 49 3
M  V30 43 1 85 46
M  V30 44 1 40 86
M  V30 45 1 40 41
M  V30 46 2 42 41
M  V30 47 1 26 66
M  V30 48 1 26 27
M  V30 49 2 2 3
M  V30 50 1 2 47
M  V30 51 1 1 87
M  V30 52 1 3 4
M  V30 53 1 41 43
M  V30 54 1 84 46
M  V30 55 1 79 44
M  V30 56 1 46 43
M  V30 57 1 46 83
M  V30 58 2 47 6
M  V30 59 2 27 28
M  V30 60 1 27 32
M  V30 61 1 68 28
M  V30 62 1 43 44
M  V30 63 1 43 45
M  V30 64 1 4 50
M  V30 65 2 4 5
M  V30 66 1 28 29
M  V30 67 2 32 31
M  V30 68 1 44 78
M  V30 69 1 44 77
M  V30 70 1 6 5
M  V30 71 1 6 7
M  V30 72 1 5 51
M  V30 73 1 29 69
M  V30 74 2 29 30
M  V30 75 1 31 71
M  V30 76 1 31 30
M  V30 77 1 82 45
M  V30 78 1 45 80
M  V30 79 1 45 81
M  V30 80 1 30 70
M  V30 81 1 7 12
M  V30 82 2 7 8
M  V30 83 1 56 12
M  V30 84 1 52 8
M  V30 85 2 12 11
M  V30 86 1 8 9
M  V30 87 1 11 55
M  V30 88 1 11 10
M  V30 89 1 9 53
M  V30 90 2 9 10
M  V30 91 1 10 54
M  V30 92 9 25 1
M  V30 93 9 32 1
M  V30 94 9 39 1
M  V30 95 9 47 1
M  V30 96 9 48 1
M  V30 END BOND
M  V30 END CTAB
M  END
