
     RDKit          3D

  0  0  0  0  0  0  0  0  0  0999 V3000
M  V30 BEGIN CTAB
M  V30 COUNTS 71 80 0 0 0
M  V30 BEGIN ATOM
M  V30 1 Fe 0.153320 -0.380590 -0.166370 0 CHG=2 VAL=6
M  V30 2 C 2.110000 -1.659910 -2.270240 0
M  V30 3 C 2.969740 -2.613590 -2.803920 0
M  V30 4 C 3.247860 -3.760170 -2.058300 0
M  V30 5 C 2.650310 -3.915180 -0.805770 0
M  V30 6 C 1.803280 -2.916920 -0.333960 0
M  V30 7 C 1.160640 -2.977920 1.032200 0
M  V30 8 C -1.196330 -3.107300 0.381670 0
M  V30 9 C -2.006910 -2.405130 -0.688020 0
M  V30 10 C -3.205260 -2.952750 -1.139540 0
M  V30 11 C -3.887440 -2.328040 -2.183930 0
M  V30 12 C -3.352090 -1.166700 -2.742750 0
M  V30 13 C -2.160630 -0.667380 -2.230860 0
M  V30 14 C -0.528530 -1.657900 2.304960 0
M  V30 15 C 0.549320 -0.677480 2.741240 0
M  V30 16 C 0.791280 -0.401110 4.076450 0
M  V30 17 C 1.703120 0.614620 4.388540 0
M  V30 18 C 2.368290 1.267120 3.359040 0
M  V30 19 C 2.123470 0.906690 2.023380 0
M  V30 20 C 2.925060 1.475800 0.925610 0
M  V30 21 C 3.089070 2.863430 0.800640 0
M  V30 22 C 3.849390 3.381580 -0.246280 0
M  V30 23 C 4.472960 2.520470 -1.155050 0
M  V30 24 C 4.337130 1.136810 -1.015580 0
M  V30 25 C 3.561630 0.615210 0.017110 0
M  V30 26 C -1.809910 -0.869530 2.095130 0
M  V30 27 C -2.989300 -1.151250 2.765050 0
M  V30 28 C -4.113250 -0.366650 2.475410 0
M  V30 29 C -3.989500 0.674180 1.566770 0
M  V30 30 C -2.752430 0.925090 0.941070 0
M  V30 31 C -2.589700 2.095680 0.058390 0
M  V30 32 C -3.517490 2.354060 -0.964010 0
M  V30 33 C -3.380570 3.489440 -1.761890 0
M  V30 34 C -2.336350 4.388460 -1.525250 0
M  V30 35 C -1.424060 4.147500 -0.494180 0
M  V30 36 C -1.543430 3.001100 0.290270 0
M  V30 37 N 1.539820 -1.805440 -1.057530 0
M  V30 38 N -0.138770 -2.260280 0.997270 0
M  V30 39 N -1.499110 -1.277840 -1.225690 0
M  V30 40 N 1.179720 -0.026860 1.732350 0
M  V30 41 N -1.689360 0.126860 1.189660 0
M  V30 42 H 1.865730 -0.750080 -2.803650 0
M  V30 43 H 3.405770 -2.456820 -3.784520 0
M  V30 44 H 3.912780 -4.525520 -2.446540 0
M  V30 45 H 2.838640 -4.797370 -0.201990 0
M  V30 46 H 1.033220 -4.013550 1.369220 0
M  V30 47 H 1.815230 -2.483200 1.753380 0
M  V30 48 H -1.858270 -3.515400 1.153900 0
M  V30 49 H -0.703900 -3.963510 -0.090730 0
M  V30 50 H -3.593370 -3.858280 -0.683280 0
M  V30 51 H -4.821050 -2.741460 -2.552890 0
M  V30 52 H -3.847160 -0.647940 -3.556310 0
M  V30 53 H -1.717250 0.245440 -2.606530 0
M  V30 54 H -0.675390 -2.431030 3.069210 0
M  V30 55 H 0.273070 -0.951910 4.854520 0
M  V30 56 H 1.908420 0.867860 5.424070 0
M  V30 57 H 3.120260 2.019980 3.567120 0
M  V30 58 H 2.600210 3.532570 1.503500 0
M  V30 59 H 3.960560 4.456210 -0.351820 0
M  V30 60 H 5.074420 2.928720 -1.961420 0
M  V30 61 H 4.843280 0.466910 -1.704390 0
M  V30 62 H 3.465200 -0.458140 0.142020 0
M  V30 63 H -3.035220 -1.958150 3.489190 0
M  V30 64 H -5.059540 -0.555700 2.972910 0
M  V30 65 H -4.823480 1.334900 1.357690 0
M  V30 66 H -4.333420 1.658080 -1.141010 0
M  V30 67 H -4.092810 3.679680 -2.558890 0
M  V30 68 H -2.240280 5.280210 -2.136950 0
M  V30 69 H -0.620910 4.851990 -0.301860 0
M  V30 70 H -0.835200 2.807110 1.090540 0
M  V30 71 Br 0.595190 1.457270 -1.626620 0
M  V30 END ATOM
M  V30 BEGIN BOND
M  V30 1 1 43 3
M  V30 2 1 52 12
M  V30 3 2 3 2
M  V30 4 1 3 4
M  V30 5 1 42 2
M  V30 6 2 12 13
M  V30 7 1 12 11
M  V30 8 1 53 13
M  V30 9 1 67 33
M  V30 10 1 51 11
M  V30 11 1 44 4
M  V30 12 1 2 37
M  V30 13 1 13 39
M  V30 14 2 11 10
M  V30 15 1 68 34
M  V30 16 2 4 5
M  V30 17 1 60 23
M  V30 18 1 33 34
M  V30 19 2 33 32
M  V30 20 1 61 24
M  V30 21 1 71 1
M  V30 22 2 34 35
M  V30 23 2 39 9
M  V30 24 2 23 24
M  V30 25 1 23 22
M  V30 26 1 66 32
M  V30 27 1 10 9
M  V30 28 1 10 50
M  V30 29 2 37 6
M  V30 30 1 24 25
M  V30 31 1 32 31
M  V30 32 1 5 6
M  V30 33 1 5 45
M  V30 34 1 9 8
M  V30 35 1 35 69
M  V30 36 1 35 36
M  V30 37 1 59 22
M  V30 38 1 6 7
M  V30 39 2 22 21
M  V30 40 1 49 8
M  V30 41 1 25 62
M  V30 42 2 25 20
M  V30 43 2 31 36
M  V30 44 1 31 30
M  V30 45 1 36 70
M  V30 46 1 8 38
M  V30 47 1 8 48
M  V30 48 1 21 20
M  V30 49 1 21 58
M  V30 50 1 20 19
M  V30 51 2 30 41
M  V30 52 1 30 29
M  V30 53 1 38 7
M  V30 54 1 38 14
M  V30 55 1 7 46
M  V30 56 1 7 47
M  V30 57 1 41 26
M  V30 58 1 65 29
M  V30 59 2 29 28
M  V30 60 2 40 19
M  V30 61 1 40 15
M  V30 62 1 19 18
M  V30 63 1 26 14
M  V30 64 2 26 27
M  V30 65 1 14 15
M  V30 66 1 14 54
M  V30 67 1 28 27
M  V30 68 1 28 64
M  V30 69 2 15 16
M  V30 70 1 27 63
M  V30 71 1 18 57
M  V30 72 2 18 17
M  V30 73 1 16 17
M  V30 74 1 16 55
M  V30 75 1 17 56
M  V30 76 9 37 1
M  V30 77 9 38 1
M  V30 78 9 39 1
M  V30 79 9 40 1
M  V30 80 9 41 1
M  V30 END BOND
M  V30 END CTAB
M  END
