
     RDKit          3D

  0  0  0  0  0  0  0  0  0  0999 V3000
M  V30 BEGIN CTAB
M  V30 COUNTS 89 97 0 0 0
M  V30 BEGIN ATOM
M  V30 1 Fe 0.667240 0.241830 -0.138420 0 CHG=1 RAD=2 VAL=5
M  V30 2 C 3.552100 0.706800 0.003300 0
M  V30 3 C 4.888000 0.775900 0.387800 0
M  V30 4 C 5.220300 0.587500 1.728000 0 CHG=-1 VAL=3
M  V30 5 C 4.177600 0.357300 2.644500 0 RAD=2 VAL=3
M  V30 6 C 2.858200 0.340300 2.208200 0
M  V30 7 C 1.741000 0.213900 3.179400 0
M  V30 8 C 0.798700 1.248000 3.288500 0
M  V30 9 C -0.245900 1.161000 4.204200 0
M  V30 10 C -0.364400 0.033600 5.024300 0
M  V30 11 C 0.574600 -0.993100 4.929800 0
M  V30 12 C 1.626900 -0.902300 4.015800 0
M  V30 13 C 3.139400 0.698300 -1.459200 0 CFG=1
M  V30 14 C 2.921800 -0.766000 -1.792800 0
M  V30 15 C 3.945700 -1.538300 -2.335900 0
M  V30 16 C 3.758600 -2.912200 -2.460600 0
M  V30 17 C 2.522900 -3.452100 -2.076900 0
M  V30 18 C 1.518800 -2.619400 -1.582700 0
M  V30 19 C 0.157300 -3.165200 -1.365600 0
M  V30 20 C -0.042900 -4.374700 -0.686500 0
M  V30 21 C -1.321200 -4.925800 -0.588100 0
M  V30 22 C -2.410700 -4.280700 -1.174000 0
M  V30 23 C -2.220200 -3.071400 -1.850200 0
M  V30 24 C -0.947200 -2.516500 -1.939800 0
M  V30 25 N 1.871200 1.459600 -1.635900 0
M  V30 26 C 1.933500 2.854300 -1.178300 0
M  V30 27 C 0.635500 3.305800 -0.529400 0
M  V30 28 C 0.118700 4.586100 -0.707200 0
M  V30 29 C -1.063000 4.939300 -0.045500 0
M  V30 30 C -1.681400 3.997100 0.774100 0
M  V30 31 C -1.097800 2.736900 0.896900 0
M  V30 32 N 0.031800 2.396000 0.257400 0
M  V30 33 C 1.225300 1.317300 -2.949400 0
M  V30 34 C -0.292100 1.419800 -2.873200 0
M  V30 35 C -1.010400 2.106400 -3.843800 0
M  V30 36 C -2.405700 2.126500 -3.737800 0
M  V30 37 C -3.034000 1.494100 -2.676700 0
M  V30 38 C -2.230800 0.834200 -1.721000 0
M  V30 39 N -0.887100 0.790300 -1.842300 0
M  V30 40 N -2.735100 0.189300 -0.593500 0
M  V30 41 C -4.039000 0.241900 -0.117800 0
M  V30 42 O -4.932100 0.848300 -0.699200 0
M  V30 43 C -4.299300 -0.503300 1.211400 0
M  V30 44 C -5.794900 -0.369800 1.542100 0
M  V30 45 C -3.464400 0.134700 2.345700 0
M  V30 46 C -3.936700 -1.996900 1.067500 0
M  V30 47 N 2.533500 0.486300 0.888200 0
M  V30 48 N 1.729000 -1.284700 -1.391500 0
M  V30 49 H 5.653600 0.960000 -0.361600 0
M  V30 50 H 6.252200 0.639200 2.060800 0
M  V30 51 H 4.381900 0.230000 3.702600 0
M  V30 52 H 0.895600 2.113100 2.643400 0
M  V30 53 H -0.969300 1.969200 4.278100 0
M  V30 54 H -1.186900 -0.042800 5.730600 0
M  V30 55 H 0.478300 -1.879900 5.549300 0
M  V30 56 H 2.339600 -1.716000 3.921500 0
M  V30 57 H 3.958500 1.098900 -2.076800 0
M  V30 58 H 4.875500 -1.064400 -2.638300 0
M  V30 59 H 4.535300 -3.545700 -2.877900 0
M  V30 60 H 2.311100 -4.507100 -2.214500 0
M  V30 61 H 0.799600 -4.865600 -0.209200 0
M  V30 62 H -1.465600 -5.851700 -0.038500 0
M  V30 63 H -3.406200 -4.709100 -1.093300 0
M  V30 64 H -3.065000 -2.554800 -2.297600 0
M  V30 65 H -0.792500 -1.576200 -2.454800 0
M  V30 66 H 2.724300 2.921500 -0.424600 0
M  V30 67 H 2.205700 3.535700 -1.999100 0
M  V30 68 H 0.626200 5.290700 -1.359900 0
M  V30 69 H -1.492500 5.928100 -0.178000 0
M  V30 70 H -2.604200 4.221000 1.299600 0
M  V30 71 H -1.532600 1.960300 1.514500 0
M  V30 72 H 1.478900 0.329200 -3.340900 0
M  V30 73 H 1.609400 2.060800 -3.665400 0
M  V30 74 H -0.496100 2.611400 -4.655600 0
M  V30 75 H -3.003600 2.647400 -4.480800 0
M  V30 76 H -4.105200 1.507300 -2.548800 0
M  V30 77 H -6.009800 -0.895900 2.479200 0
M  V30 78 H -6.084500 0.679200 1.654200 0
M  V30 79 H -6.415500 -0.798900 0.749800 0
M  V30 80 H -3.686500 1.205800 2.438500 0
M  V30 81 H -3.722800 -0.341300 3.299000 0
M  V30 82 H -2.390400 -0.001300 2.192200 0
M  V30 83 H -4.154100 -2.517000 2.007600 0
M  V30 84 H -2.881500 -2.152700 0.838600 0
M  V30 85 H -4.528900 -2.468000 0.274800 0
M  V30 86 H -2.032600 -0.324300 -0.035600 0
M  V30 87 N -0.576300 -0.922500 0.975600 0
M  V30 88 N -0.332300 -1.938300 1.586600 0 CHG=1 VAL=4
M  V30 89 N -0.130200 -2.911000 2.177600 0 CHG=-1 VAL=2
M  V30 END ATOM
M  V30 BEGIN BOND
M  V30 1 1 74 35
M  V30 2 1 75 36
M  V30 3 2 35 36
M  V30 4 1 35 34
M  V30 5 1 36 37
M  V30 6 1 73 33
M  V30 7 1 72 33
M  V30 8 1 33 34
M  V30 9 1 33 25
M  V30 10 1 59 16
M  V30 11 2 34 39
M  V30 12 1 37 76
M  V30 13 2 37 38
M  V30 14 1 58 15
M  V30 15 2 16 15
M  V30 16 1 16 17
M  V30 17 1 65 24
M  V30 18 1 15 14
M  V30 19 1 64 23
M  V30 20 1 60 17
M  V30 21 2 17 18
M  V30 22 1 13 57 CFG=3
M  V30 23 1 67 26
M  V30 24 2 24 23
M  V30 25 1 24 19
M  V30 26 1 23 22
M  V30 27 1 39 38
M  V30 28 1 14 13
M  V30 29 2 14 48
M  V30 30 1 38 40
M  V30 31 1 25 13
M  V30 32 1 25 26
M  V30 33 1 18 48
M  V30 34 1 18 19
M  V30 35 1 13 2
M  V30 36 2 19 20
M  V30 37 1 68 28
M  V30 38 1 26 27
M  V30 39 1 26 66
M  V30 40 1 22 63
M  V30 41 2 22 21
M  V30 42 2 28 27
M  V30 43 1 28 29
M  V30 44 2 42 41
M  V30 45 1 20 21
M  V30 46 1 20 61
M  V30 47 1 40 41
M  V30 48 1 40 86
M  V30 49 1 21 62
M  V30 50 1 27 32
M  V30 51 1 49 3
M  V30 52 1 69 29
M  V30 53 1 41 43
M  V30 54 2 29 30
M  V30 55 2 2 3
M  V30 56 1 2 47
M  V30 57 2 32 31
M  V30 58 1 85 46
M  V30 59 1 3 4
M  V30 60 1 79 44
M  V30 61 1 30 31
M  V30 62 1 30 70
M  V30 63 1 84 46
M  V30 64 2 47 6
M  V30 65 1 31 71
M  V30 66 2 87 88
M  V30 67 1 46 43
M  V30 68 1 46 83
M  V30 69 1 43 44
M  V30 70 1 43 45
M  V30 71 1 44 78
M  V30 72 1 44 77
M  V30 73 2 88 89
M  V30 74 1 4 50
M  V30 75 1 4 5
M  V30 76 1 82 45
M  V30 77 1 6 5
M  V30 78 1 6 7
M  V30 79 1 45 80
M  V30 80 1 45 81
M  V30 81 1 52 8
M  V30 82 1 5 51
M  V30 83 2 7 8
M  V30 84 1 7 12
M  V30 85 1 8 9
M  V30 86 1 56 12
M  V30 87 2 12 11
M  V30 88 1 9 53
M  V30 89 2 9 10
M  V30 90 1 11 10
M  V30 91 1 11 55
M  V30 92 1 10 54
M  V30 93 1 1 87
M  V30 94 9 32 1
M  V30 95 9 39 1
M  V30 96 9 47 1
M  V30 97 9 48 1
M  V30 END BOND
M  V30 END CTAB
M  END
