
     RDKit          3D

  0  0  0  0  0  0  0  0  0  0999 V3000
M  V30 BEGIN CTAB
M  V30 COUNTS 72 81 0 0 0
M  V30 BEGIN ATOM
M  V30 1 Fe -0.077010 0.393340 -0.297670 0 CHG=2 VAL=6
M  V30 2 C -2.330600 -0.533200 -2.142310 0
M  V30 3 C -3.631000 -0.788250 -2.559530 0
M  V30 4 C -4.686420 -0.209090 -1.850420 0
M  V30 5 C -4.405060 0.609370 -0.756160 0
M  V30 6 C -3.075320 0.829530 -0.401030 0
M  V30 7 C -2.716620 1.767400 0.736820 0
M  V30 8 C -0.665790 3.071220 1.110850 0
M  V30 9 C -0.279960 3.429870 -0.306920 0
M  V30 10 C -0.289970 4.732420 -0.795850 0
M  V30 11 C 0.138900 4.964550 -2.105460 0
M  V30 12 C 0.556530 3.887130 -2.889680 0
M  V30 13 C 0.532110 2.610910 -2.337060 0
M  V30 14 C -1.027800 0.953930 2.379510 0
M  V30 15 C -1.549190 -0.465960 2.181310 0
M  V30 16 C -2.491070 -1.066290 3.002020 0
M  V30 17 C -2.865600 -2.387190 2.718060 0
M  V30 18 C -2.256200 -3.057280 1.664570 0
M  V30 19 C -1.289090 -2.397790 0.885540 0
M  V30 20 C -0.528240 -3.090280 -0.174090 0
M  V30 21 C 0.872640 -2.970070 -0.202510 0
M  V30 22 C 1.614460 -3.619410 -1.188250 0
M  V30 23 C 0.962110 -4.390950 -2.157410 0
M  V30 24 C -0.428780 -4.523970 -2.126350 0
M  V30 25 C -1.172700 -3.884990 -1.132980 0
M  V30 26 C 0.474580 0.848520 2.608490 0
M  V30 27 C 1.024790 0.886800 3.879980 0
M  V30 28 C 2.390790 0.616200 4.021350 0
M  V30 29 C 3.140470 0.316580 2.892130 0
M  V30 30 C 2.532610 0.313680 1.624310 0
M  V30 31 C 3.314710 -0.013840 0.413460 0
M  V30 32 C 3.257190 0.804400 -0.724310 0
M  V30 33 C 3.997750 0.481520 -1.860370 0
M  V30 34 C 4.798490 -0.663670 -1.871700 0
M  V30 35 C 4.868320 -1.479870 -0.737600 0
M  V30 36 C 4.138110 -1.153220 0.404870 0
M  V30 37 N -2.067900 0.261410 -1.085200 0
M  V30 38 N -1.283030 1.721250 1.131180 0
M  V30 39 N 0.126040 2.394870 -1.071430 0
M  V30 40 N -0.987120 -1.105900 1.134400 0
M  V30 41 N 1.211160 0.590060 1.499530 0
M  V30 42 O 0.684210 -0.387200 -1.729110 0
M  V30 43 H -1.460230 -0.958000 -2.627820 0
M  V30 44 H -3.809370 -1.427230 -3.417450 0
M  V30 45 H -5.715340 -0.391100 -2.145380 0
M  V30 46 H -5.204770 1.075590 -0.188490 0
M  V30 47 H -2.947980 2.786750 0.410620 0
M  V30 48 H -3.358810 1.568720 1.602750 0
M  V30 49 H 0.240070 3.048640 1.722670 0
M  V30 50 H -1.329580 3.826040 1.548920 0
M  V30 51 H -0.624730 5.549390 -0.164400 0
M  V30 52 H 0.139960 5.972690 -2.508400 0
M  V30 53 H 0.888950 4.028860 -3.912240 0
M  V30 54 H 0.834580 1.723940 -2.882730 0
M  V30 55 H -1.512660 1.418130 3.247560 0
M  V30 56 H -2.922310 -0.526270 3.838650 0
M  V30 57 H -3.604820 -2.890160 3.333930 0
M  V30 58 H -2.483420 -4.097200 1.457130 0
M  V30 59 H 1.375450 -2.375790 0.555430 0
M  V30 60 H 2.696930 -3.529990 -1.192730 0
M  V30 61 H 1.537920 -4.899320 -2.924720 0
M  V30 62 H -0.933490 -5.129860 -2.872500 0
M  V30 63 H -2.254680 -3.985020 -1.113850 0
M  V30 64 H 0.403090 1.108370 4.741180 0
M  V30 65 H 2.857150 0.642110 5.001340 0
M  V30 66 H 4.202280 0.110280 2.965070 0
M  V30 67 H 2.645020 1.699430 -0.705640 0
M  V30 68 H 3.960540 1.128350 -2.731700 0
M  V30 69 H 5.378340 -0.912380 -2.755290 0
M  V30 70 H 5.499330 -2.363550 -0.739660 0
M  V30 71 H 4.190200 -1.791280 1.283040 0
M  V30 72 H 1.296090 -1.143620 -1.732030 0
M  V30 END ATOM
M  V30 BEGIN BOND
M  V30 1 1 53 12
M  V30 2 1 44 3
M  V30 3 1 61 23
M  V30 4 2 12 13
M  V30 5 1 12 11
M  V30 6 1 54 13
M  V30 7 1 62 24
M  V30 8 1 69 34
M  V30 9 1 68 33
M  V30 10 1 43 2
M  V30 11 2 3 2
M  V30 12 1 3 4
M  V30 13 1 52 11
M  V30 14 1 13 39
M  V30 15 2 23 24
M  V30 16 1 23 22
M  V30 17 1 45 4
M  V30 18 1 2 37
M  V30 19 1 24 25
M  V30 20 2 11 10
M  V30 21 1 34 33
M  V30 22 2 34 35
M  V30 23 2 33 32
M  V30 24 2 4 5
M  V30 25 1 72 42
M  V30 26 1 42 1
M  V30 27 1 60 22
M  V30 28 2 22 21
M  V30 29 1 25 63
M  V30 30 2 25 20
M  V30 31 2 37 6
M  V30 32 2 39 9
M  V30 33 1 10 9
M  V30 34 1 10 51
M  V30 35 1 5 6
M  V30 36 1 5 46
M  V30 37 1 70 35
M  V30 38 1 35 36
M  V30 39 1 32 67
M  V30 40 1 32 31
M  V30 41 1 6 7
M  V30 42 1 9 8
M  V30 43 1 21 20
M  V30 44 1 21 59
M  V30 45 1 20 19
M  V30 46 2 36 31
M  V30 47 1 36 71
M  V30 48 1 47 7
M  V30 49 1 31 30
M  V30 50 1 7 38
M  V30 51 1 7 48
M  V30 52 2 19 40
M  V30 53 1 19 18
M  V30 54 1 8 38
M  V30 55 1 8 50
M  V30 56 1 8 49
M  V30 57 1 38 14
M  V30 58 1 40 15
M  V30 59 1 58 18
M  V30 60 2 41 30
M  V30 61 1 41 26
M  V30 62 1 30 29
M  V30 63 2 18 17
M  V30 64 1 15 14
M  V30 65 2 15 16
M  V30 66 1 14 26
M  V30 67 1 14 55
M  V30 68 2 26 27
M  V30 69 1 17 16
M  V30 70 1 17 57
M  V30 71 1 29 66
M  V30 72 2 29 28
M  V30 73 1 16 56
M  V30 74 1 27 28
M  V30 75 1 27 64
M  V30 76 1 28 65
M  V30 77 9 37 1
M  V30 78 9 38 1
M  V30 79 9 39 1
M  V30 80 9 40 1
M  V30 81 9 41 1
M  V30 END BOND
M  V30 END CTAB
M  END
