
     RDKit          3D

  0  0  0  0  0  0  0  0  0  0999 V3000
M  V30 BEGIN CTAB
M  V30 COUNTS 88 97 0 0 0
M  V30 BEGIN ATOM
M  V30 1 Fe -0.520150 -0.275890 0.049290 0 VAL=6
M  V30 2 C -3.365680 -1.163210 0.532640 0
M  V30 3 C -4.693430 -1.304900 0.947280 0
M  V30 4 C -5.191340 -0.468390 1.935460 0
M  V30 5 C -4.333620 0.514710 2.473920 0
M  V30 6 C -3.014190 0.594760 2.039350 0
M  V30 7 C -2.094560 1.595800 2.635250 0
M  V30 8 C -0.815730 1.218640 3.067600 0
M  V30 9 C 0.041160 2.152030 3.647460 0
M  V30 10 C -0.363570 3.480360 3.795500 0
M  V30 11 C -1.635500 3.868480 3.364900 0
M  V30 12 C -2.496490 2.931960 2.792320 0
M  V30 13 C -2.852790 -1.845660 -0.715210 0
M  V30 14 C -2.885270 -0.785330 -1.788140 0
M  V30 15 C -3.981230 -0.647230 -2.642020 0
M  V30 16 C -4.071530 0.472230 -3.458630 0
M  V30 17 C -3.030560 1.422750 -3.406230 0
M  V30 18 C -1.946200 1.213420 -2.560610 0
M  V30 19 C -0.777100 2.122550 -2.615840 0
M  V30 20 C -0.934650 3.516880 -2.651810 0
M  V30 21 C 0.175440 4.351870 -2.789930 0
M  V30 22 C 1.454820 3.803690 -2.910450 0
M  V30 23 C 1.619440 2.416070 -2.872810 0
M  V30 24 C 0.515970 1.582830 -2.709560 0
M  V30 25 N -1.446270 -2.310130 -0.501650 0
M  V30 26 C -1.308340 -3.238590 0.636130 0
M  V30 27 C 0.006940 -3.053430 1.351490 0
M  V30 28 C 0.800750 -4.121850 1.772730 0
M  V30 29 C 1.995890 -3.858370 2.439810 0
M  V30 30 C 2.364220 -2.528920 2.669700 0
M  V30 31 C 1.518640 -1.522350 2.211290 0
M  V30 32 N 0.371040 -1.771740 1.567040 0
M  V30 33 C -0.788580 -2.798210 -1.726750 0
M  V30 34 C 0.716680 -2.652000 -1.669080 0
M  V30 35 C 1.553890 -3.667080 -2.122340 0
M  V30 36 C 2.932350 -3.452620 -2.071790 0
M  V30 37 C 3.435580 -2.266780 -1.555100 0
M  V30 38 C 2.522100 -1.296830 -1.089510 0
M  V30 39 N 1.186090 -1.487390 -1.177610 0
M  V30 40 N 2.901910 -0.091780 -0.500300 0
M  V30 41 C 4.185180 0.275070 -0.126190 0
M  V30 42 O 5.176030 -0.408470 -0.363350 0
M  V30 43 C 4.312230 1.621270 0.631160 0
M  V30 44 C 5.804740 1.870330 0.902840 0
M  V30 45 C 3.546530 1.554710 1.972000 0
M  V30 46 C 3.743700 2.774380 -0.220510 0
M  V30 47 N -2.513960 -0.241700 1.086860 0
M  V30 48 N -1.870580 0.133310 -1.732420 0
M  V30 49 H -5.320090 -2.060540 0.480000 0
M  V30 50 H -6.211530 -0.569950 2.292760 0
M  V30 51 H -4.675610 1.184120 3.255850 0
M  V30 52 H -0.506430 0.188610 2.940670 0
M  V30 53 H 1.030830 1.843570 3.973450 0
M  V30 54 H 0.308050 4.210070 4.240310 0
M  V30 55 H -1.955260 4.902020 3.470000 0
M  V30 56 H -3.479820 3.236110 2.443590 0
M  V30 57 H -3.521310 -2.675660 -0.987740 0
M  V30 58 H -4.755020 -1.410680 -2.644640 0
M  V30 59 H -4.905830 0.600800 -4.141190 0
M  V30 60 H -3.031940 2.285040 -4.064360 0
M  V30 61 H -1.930110 3.942770 -2.558280 0
M  V30 62 H 0.040500 5.430260 -2.803970 0
M  V30 63 H 2.319180 4.452650 -3.022940 0
M  V30 64 H 2.610630 1.980220 -2.952790 0
M  V30 65 H 0.641300 0.507090 -2.656160 0
M  V30 66 H -2.126980 -3.005290 1.329510 0
M  V30 67 H -1.432890 -4.283820 0.315850 0
M  V30 68 H 0.488120 -5.141480 1.566610 0
M  V30 69 H 2.633640 -4.674490 2.767130 0
M  V30 70 H 3.289990 -2.275300 3.175500 0
M  V30 71 H 1.760020 -0.473400 2.332160 0
M  V30 72 H -1.175250 -2.200670 -2.558030 0
M  V30 73 H -1.055830 -3.847570 -1.926020 0
M  V30 74 H 1.136420 -4.594900 -2.501000 0
M  V30 75 H 3.619550 -4.216740 -2.425270 0
M  V30 76 H 4.494110 -2.074540 -1.478530 0
M  V30 77 H 5.926690 2.821730 1.433620 0
M  V30 78 H 6.234710 1.070610 1.512700 0
M  V30 79 H 6.375380 1.913630 -0.029570 0
M  V30 80 H 3.886220 0.703570 2.575900 0
M  V30 81 H 3.742750 2.468130 2.547060 0
M  V30 82 H 2.467260 1.483710 1.809880 0
M  V30 83 H 3.895940 3.725900 0.303320 0
M  V30 84 H 2.673670 2.658890 -0.401380 0
M  V30 85 H 4.252630 2.839190 -1.189390 0
M  V30 86 H 2.098510 0.513050 -0.208830 0
M  V30 87 O 0.686590 1.153880 0.418360 0
M  V30 88 H 0.387500 2.040930 0.171230 0
M  V30 END ATOM
M  V30 BEGIN BOND
M  V30 1 1 59 16
M  V30 2 1 60 17
M  V30 3 1 16 17
M  V30 4 2 16 15
M  V30 5 2 17 18
M  V30 6 1 63 22
M  V30 7 1 64 23
M  V30 8 2 22 23
M  V30 9 1 22 21
M  V30 10 1 23 24
M  V30 11 1 62 21
M  V30 12 2 21 20
M  V30 13 1 24 65
M  V30 14 2 24 19
M  V30 15 1 20 19
M  V30 16 1 20 61
M  V30 17 1 58 15
M  V30 18 1 15 14
M  V30 19 1 19 18
M  V30 20 1 18 48
M  V30 21 1 72 33
M  V30 22 1 74 35
M  V30 23 1 75 36
M  V30 24 2 35 36
M  V30 25 1 35 34
M  V30 26 1 36 37
M  V30 27 1 73 33
M  V30 28 2 14 48
M  V30 29 1 14 13
M  V30 30 1 33 34
M  V30 31 1 33 25
M  V30 32 2 34 39
M  V30 33 1 37 76
M  V30 34 2 37 38
M  V30 35 1 85 46
M  V30 36 1 39 38
M  V30 37 1 38 40
M  V30 38 1 57 13
M  V30 39 1 13 25
M  V30 40 1 13 2
M  V30 41 1 25 26
M  V30 42 1 40 86
M  V30 43 1 40 41
M  V30 44 1 84 46
M  V30 45 2 42 41
M  V30 46 1 46 83
M  V30 47 1 46 43
M  V30 48 1 41 43
M  V30 49 1 79 44
M  V30 50 1 1 87
M  V30 51 1 88 87
M  V30 52 1 67 26
M  V30 53 1 49 3
M  V30 54 2 2 3
M  V30 55 1 2 47
M  V30 56 1 43 44
M  V30 57 1 43 45
M  V30 58 1 26 66
M  V30 59 1 26 27
M  V30 60 1 44 77
M  V30 61 1 44 78
M  V30 62 1 3 4
M  V30 63 2 47 6
M  V30 64 1 27 32
M  V30 65 2 27 28
M  V30 66 1 68 28
M  V30 67 2 32 31
M  V30 68 1 28 29
M  V30 69 1 82 45
M  V30 70 1 4 50
M  V30 71 2 4 5
M  V30 72 1 45 81
M  V30 73 1 45 80
M  V30 74 1 6 5
M  V30 75 1 6 7
M  V30 76 1 31 71
M  V30 77 1 31 30
M  V30 78 2 29 30
M  V30 79 1 29 69
M  V30 80 1 56 12
M  V30 81 1 5 51
M  V30 82 1 7 12
M  V30 83 2 7 8
M  V30 84 1 30 70
M  V30 85 2 12 11
M  V30 86 1 52 8
M  V30 87 1 8 9
M  V30 88 1 11 55
M  V30 89 1 11 10
M  V30 90 2 9 10
M  V30 91 1 9 53
M  V30 92 1 10 54
M  V30 93 9 25 1
M  V30 94 9 32 1
M  V30 95 9 39 1
M  V30 96 9 47 1
M  V30 97 9 48 1
M  V30 END BOND
M  V30 END CTAB
M  END
