
     RDKit          3D

  0  0  0  0  0  0  0  0  0  0999 V3000
M  V30 BEGIN CTAB
M  V30 COUNTS 76 83 0 0 0
M  V30 BEGIN ATOM
M  V30 1 Fe -0.364980 -0.777000 -0.029130 0 CHG=2 VAL=6
M  V30 2 S 0.384150 1.560760 -0.925750 0 RAD=2 VAL=3
M  V30 3 C 1.513810 2.361310 0.299040 0
M  V30 4 C 1.666150 3.878390 0.085800 0
M  V30 5 C 2.427710 4.398120 1.224390 0
M  V30 6 N 3.004240 4.721700 2.177470 0
M  V30 7 H 2.189510 4.091630 -0.852320 0
M  V30 8 H 0.692100 4.379150 0.047100 0
M  V30 9 H 2.478680 1.864580 0.164170 0
M  V30 10 H 1.158370 2.151590 1.307810 0
M  V30 11 C -1.125740 2.534350 -0.840050 0
M  V30 12 C -1.407300 3.316750 -1.965530 0
M  V30 13 C -2.571840 4.087220 -2.013630 0
M  V30 14 C -3.457170 4.064840 -0.938140 0
M  V30 15 C -3.177550 3.272280 0.178000 0
M  V30 16 C -2.019190 2.490560 0.251840 0
M  V30 17 C -1.740720 1.742330 1.535740 0
M  V30 18 N -1.652470 0.238620 1.506160 0
M  V30 19 C -1.061910 -0.192670 2.811750 0
M  V30 20 C 0.438510 -0.074070 2.746030 0
M  V30 21 N 1.022030 -0.538370 1.598830 0
M  V30 22 C 2.375760 -0.491310 1.492020 0
M  V30 23 N 2.959000 -0.983800 0.335020 0
M  V30 24 C 4.045100 -0.355900 -0.316720 0
M  V30 25 O 4.380440 0.765040 0.029420 0
M  V30 26 C 4.699300 -1.108750 -1.478110 0
M  V30 27 C 6.213670 -0.810760 -1.423430 0
M  V30 28 H 6.403120 0.264700 -1.422040 0
M  V30 29 H 6.669840 -1.241810 -0.525610 0
M  V30 30 H 6.701040 -1.253330 -2.297470 0
M  V30 31 C 4.468600 -2.630400 -1.430520 0
M  V30 32 H 5.054080 -3.105290 -2.223310 0
M  V30 33 H 4.793850 -3.060960 -0.476960 0
M  V30 34 H 3.423510 -2.910350 -1.609810 0
M  V30 35 C 4.098320 -0.509730 -2.774890 0
M  V30 36 H 4.284430 0.567600 -2.825460 0
M  V30 37 H 4.568870 -0.980630 -3.643820 0
M  V30 38 H 3.018180 -0.686850 -2.840620 0
M  V30 39 H 2.529550 -1.784540 -0.110290 0
M  V30 40 C 3.172960 0.058630 2.513810 0
M  V30 41 C 2.567490 0.553440 3.653040 0
M  V30 42 C 1.170510 0.484540 3.775530 0
M  V30 43 H 0.667860 0.862920 4.659090 0
M  V30 44 H 3.168120 0.986840 4.446310 0
M  V30 45 H 4.245920 0.091700 2.385210 0
M  V30 46 H -1.465680 0.407530 3.634610 0
M  V30 47 H -1.333330 -1.230710 3.005740 0
M  V30 48 C -2.948800 -0.434690 1.185990 0
M  V30 49 C -2.751360 -1.937990 1.327230 0
M  V30 50 N -1.582180 -2.378490 0.812780 0
M  V30 51 C -1.301940 -3.691850 0.823550 0
M  V30 52 C -2.189090 -4.623990 1.359210 0
M  V30 53 C -3.396970 -4.173680 1.891820 0
M  V30 54 C -3.685910 -2.803480 1.876790 0
M  V30 55 H -4.615900 -2.421850 2.285680 0
M  V30 56 H -4.108020 -4.875920 2.315920 0
M  V30 57 H -1.933160 -5.677850 1.352020 0
M  V30 58 H -0.355560 -3.984300 0.383320 0
M  V30 59 C -3.269630 -0.182610 -0.280060 0
M  V30 60 N -2.210560 -0.344480 -1.098700 0
M  V30 61 C -2.371640 -0.226470 -2.427230 0
M  V30 62 C -3.613080 0.058350 -2.990160 0
M  V30 63 C -4.712850 0.220190 -2.146960 0
M  V30 64 C -4.539810 0.094160 -0.765120 0
M  V30 65 H -5.373440 0.216440 -0.081280 0
M  V30 66 H -5.693800 0.440390 -2.556570 0
M  V30 67 H -3.709280 0.143850 -4.066960 0
M  V30 68 H -1.484080 -0.370670 -3.032610 0
M  V30 69 H -3.759580 -0.083100 1.834770 0
M  V30 70 H -0.787170 2.074210 1.951960 0
M  V30 71 H -2.509300 2.009250 2.272500 0
M  V30 72 H -3.871320 3.270770 1.014830 0
M  V30 73 H -4.360960 4.665650 -0.959530 0
M  V30 74 H -2.774820 4.703640 -2.883640 0
M  V30 75 H -0.710910 3.331090 -2.798380 0
M  V30 76 Br 0.549310 -2.141560 -1.808210 0
M  V30 END ATOM
M  V30 BEGIN BOND
M  V30 1 1 67 62
M  V30 2 1 37 35
M  V30 3 1 68 61
M  V30 4 1 62 61
M  V30 5 2 62 63
M  V30 6 1 74 13
M  V30 7 1 38 35
M  V30 8 1 36 35
M  V30 9 1 75 12
M  V30 10 1 35 26
M  V30 11 1 66 63
M  V30 12 2 61 60
M  V30 13 1 30 27
M  V30 14 1 32 31
M  V30 15 1 63 64
M  V30 16 1 13 12
M  V30 17 2 13 14
M  V30 18 2 12 11
M  V30 19 1 76 1
M  V30 20 1 34 31
M  V30 21 1 26 31
M  V30 22 1 26 27
M  V30 23 1 26 24
M  V30 24 1 31 33
M  V30 25 1 27 28
M  V30 26 1 27 29
M  V30 27 1 60 59
M  V30 28 1 73 14
M  V30 29 1 14 15
M  V30 30 1 2 11
M  V30 31 1 2 1
M  V30 32 1 2 3
M  V30 33 1 7 4
M  V30 34 1 11 16
M  V30 35 2 64 59
M  V30 36 1 64 65
M  V30 37 2 24 25
M  V30 38 1 24 23
M  V30 39 1 59 48
M  V30 40 1 39 23
M  V30 41 1 8 4
M  V30 42 1 4 3
M  V30 43 1 4 5
M  V30 44 1 9 3
M  V30 45 2 15 16
M  V30 46 1 15 72
M  V30 47 1 16 17
M  V30 48 1 3 10
M  V30 49 1 23 22
M  V30 50 1 58 51
M  V30 51 2 50 51
M  V30 52 1 50 49
M  V30 53 1 51 52
M  V30 54 1 48 49
M  V30 55 1 48 18
M  V30 56 1 48 69
M  V30 57 3 5 6
M  V30 58 2 49 54
M  V30 59 1 57 52
M  V30 60 2 52 53
M  V30 61 2 22 21
M  V30 62 1 22 40
M  V30 63 1 18 17
M  V30 64 1 18 19
M  V30 65 1 17 70
M  V30 66 1 17 71
M  V30 67 1 21 20
M  V30 68 1 54 53
M  V30 69 1 54 55
M  V30 70 1 53 56
M  V30 71 1 45 40
M  V30 72 2 40 41
M  V30 73 1 20 19
M  V30 74 2 20 42
M  V30 75 1 19 47
M  V30 76 1 19 46
M  V30 77 1 41 42
M  V30 78 1 41 44
M  V30 79 1 42 43
M  V30 80 9 18 1
M  V30 81 9 21 1
M  V30 82 9 50 1
M  V30 83 9 60 1
M  V30 END BOND
M  V30 END CTAB
M  END
