
     RDKit          3D

  0  0  0  0  0  0  0  0  0  0999 V3000
M  V30 BEGIN CTAB
M  V30 COUNTS 76 83 0 0 0
M  V30 BEGIN ATOM
M  V30 1 Fe -0.348890 -0.882750 -0.284610 0 CHG=2 VAL=6
M  V30 2 S 0.583850 1.509010 -0.773570 0 RAD=2 VAL=3
M  V30 3 C 1.793410 1.975310 0.546800 0
M  V30 4 C 2.061240 3.489720 0.612600 0
M  V30 5 C 2.886690 3.738520 1.796930 0
M  V30 6 N 3.510300 3.849940 2.768520 0
M  V30 7 H 2.576260 3.836040 -0.289880 0
M  V30 8 H 1.127260 4.056080 0.701440 0
M  V30 9 H 2.712160 1.440190 0.293320 0
M  V30 10 H 1.437800 1.604730 1.508530 0
M  V30 11 C -0.841640 2.568250 -0.480230 0
M  V30 12 C -1.061720 3.561310 -1.441660 0
M  V30 13 C -2.161910 4.415690 -1.333820 0
M  V30 14 C -3.045530 4.268560 -0.266880 0
M  V30 15 C -2.828200 3.268430 0.684100 0
M  V30 16 C -1.735710 2.397590 0.599360 0
M  V30 17 C -1.521740 1.410950 1.725400 0
M  V30 18 N -1.564590 -0.063540 1.424440 0
M  V30 19 C -1.020830 -0.773460 2.627190 0
M  V30 20 C 0.487630 -0.797310 2.555840 0
M  V30 21 N 1.007730 -1.053130 1.320270 0
M  V30 22 C 2.356480 -1.126010 1.155440 0
M  V30 23 N 2.816080 -1.371760 -0.122530 0
M  V30 24 C 3.973780 -0.780480 -0.686540 0
M  V30 25 O 4.631560 0.012440 -0.038410 0
M  V30 26 C 4.238570 -1.142410 -2.151430 0
M  V30 27 C 5.667650 -0.696910 -2.505480 0
M  V30 28 H 5.807890 0.371000 -2.321460 0
M  V30 29 H 6.408680 -1.239230 -1.910370 0
M  V30 30 H 5.861100 -0.899300 -3.563310 0
M  V30 31 C 4.076920 -2.657550 -2.400860 0
M  V30 32 H 4.362350 -2.881240 -3.433420 0
M  V30 33 H 4.723970 -3.243970 -1.740390 0
M  V30 34 H 3.043920 -3.003610 -2.274620 0
M  V30 35 C 3.212890 -0.351950 -3.006170 0
M  V30 36 H 3.304880 0.726630 -2.832710 0
M  V30 37 H 3.410030 -0.537880 -4.066920 0
M  V30 38 H 2.182230 -0.660110 -2.798590 0
M  V30 39 H 2.169610 -1.823660 -0.763340 0
M  V30 40 C 3.226400 -0.924150 2.245320 0
M  V30 41 C 2.688640 -0.643630 3.488160 0
M  V30 42 C 1.293410 -0.573980 3.653720 0
M  V30 43 H 0.855010 -0.352020 4.620660 0
M  V30 44 H 3.345920 -0.477090 4.335750 0
M  V30 45 H 4.294030 -0.976960 2.087750 0
M  V30 46 H -1.361780 -0.291820 3.550180 0
M  V30 47 H -1.395670 -1.797910 2.640270 0
M  V30 48 C -2.903880 -0.558570 0.972630 0
M  V30 49 C -2.822440 -2.075540 0.830710 0
M  V30 50 N -1.688540 -2.485800 0.224330 0
M  V30 51 C -1.492270 -3.783590 -0.050100 0
M  V30 52 C -2.441740 -4.744720 0.295860 0
M  V30 53 C -3.611670 -4.332260 0.934900 0
M  V30 54 C -3.811370 -2.971600 1.207330 0
M  V30 55 H -4.714100 -2.624500 1.699550 0
M  V30 56 H -4.366700 -5.058780 1.219130 0
M  V30 57 H -2.263660 -5.789350 0.065190 0
M  V30 58 H -0.565590 -4.027250 -0.558740 0
M  V30 59 C -3.164800 -0.028210 -0.435420 0
M  V30 60 N -2.105600 -0.149000 -1.262000 0
M  V30 61 C -2.216910 0.176760 -2.559500 0
M  V30 62 C -3.415640 0.649020 -3.088260 0
M  V30 63 C -4.514990 0.783640 -2.238620 0
M  V30 64 C -4.391340 0.434860 -0.889110 0
M  V30 65 H -5.230370 0.526600 -0.207170 0
M  V30 66 H -5.462000 1.152340 -2.620510 0
M  V30 67 H -3.481170 0.901190 -4.140930 0
M  V30 68 H -1.324490 0.048750 -3.163910 0
M  V30 69 H -3.705220 -0.266900 1.661140 0
M  V30 70 H -0.540970 1.578730 2.176820 0
M  V30 71 H -2.261750 1.608690 2.511410 0
M  V30 72 H -3.518540 3.170780 1.518060 0
M  V30 73 H -3.898730 4.932000 -0.166020 0
M  V30 74 H -2.315570 5.192970 -2.075650 0
M  V30 75 H -0.366700 3.672570 -2.268320 0
M  V30 76 F 0.471450 -1.811610 -1.574350 0
M  V30 END ATOM
M  V30 BEGIN BOND
M  V30 1 1 67 62
M  V30 2 1 37 35
M  V30 3 1 30 27
M  V30 4 1 32 31
M  V30 5 1 68 61
M  V30 6 1 62 61
M  V30 7 2 62 63
M  V30 8 1 35 36
M  V30 9 1 35 38
M  V30 10 1 35 26
M  V30 11 1 66 63
M  V30 12 2 61 60
M  V30 13 1 27 28
M  V30 14 1 27 26
M  V30 15 1 27 29
M  V30 16 1 31 34
M  V30 17 1 31 26
M  V30 18 1 31 33
M  V30 19 1 75 12
M  V30 20 1 63 64
M  V30 21 1 26 24
M  V30 22 1 74 13
M  V30 23 1 76 1
M  V30 24 1 12 13
M  V30 25 2 12 11
M  V30 26 2 13 14
M  V30 27 1 60 59
M  V30 28 2 64 59
M  V30 29 1 64 65
M  V30 30 1 2 11
M  V30 31 1 2 1
M  V30 32 1 2 3
M  V30 33 1 39 23
M  V30 34 1 24 23
M  V30 35 2 24 25
M  V30 36 1 58 51
M  V30 37 1 11 16
M  V30 38 1 59 48
M  V30 39 1 7 4
M  V30 40 1 14 73
M  V30 41 1 14 15
M  V30 42 1 23 22
M  V30 43 2 51 50
M  V30 44 1 51 52
M  V30 45 1 57 52
M  V30 46 1 50 49
M  V30 47 1 9 3
M  V30 48 2 52 53
M  V30 49 1 3 4
M  V30 50 1 3 10
M  V30 51 2 16 15
M  V30 52 1 16 17
M  V30 53 1 4 8
M  V30 54 1 4 5
M  V30 55 1 15 72
M  V30 56 1 49 48
M  V30 57 2 49 54
M  V30 58 1 53 54
M  V30 59 1 53 56
M  V30 60 1 48 18
M  V30 61 1 48 69
M  V30 62 2 22 21
M  V30 63 1 22 40
M  V30 64 1 54 55
M  V30 65 1 21 20
M  V30 66 1 18 17
M  V30 67 1 18 19
M  V30 68 1 17 70
M  V30 69 1 17 71
M  V30 70 3 5 6
M  V30 71 1 45 40
M  V30 72 2 40 41
M  V30 73 1 20 19
M  V30 74 2 20 42
M  V30 75 1 19 47
M  V30 76 1 19 46
M  V30 77 1 41 42
M  V30 78 1 41 44
M  V30 79 1 42 43
M  V30 80 9 18 1
M  V30 81 9 21 1
M  V30 82 9 50 1
M  V30 83 9 60 1
M  V30 END BOND
M  V30 END CTAB
M  END
