
     RDKit          3D

  0  0  0  0  0  0  0  0  0  0999 V3000
M  V30 BEGIN CTAB
M  V30 COUNTS 78 84 0 0 0
M  V30 BEGIN ATOM
M  V30 1 Fe -0.357370 -0.831940 -0.045410 0 CHG=1 RAD=2 VAL=5
M  V30 2 S 0.599400 1.462200 -0.898900 0
M  V30 3 C 1.788200 2.142200 0.344400 0
M  V30 4 C 2.048600 3.649500 0.174200 0
M  V30 5 C 2.860400 4.088700 1.311800 0 CHG=1 VAL=3
M  V30 6 N 3.473700 4.357100 2.259000 0 RAD=2 VAL=2
M  V30 7 H 2.571000 3.852900 -0.766800 0
M  V30 8 H 1.111000 4.216600 0.163200 0
M  V30 9 H 2.713500 1.581100 0.191900 0
M  V30 10 H 1.423800 1.926600 1.349200 0
M  V30 11 C -0.827200 2.555400 -0.799400 0
M  V30 12 C -1.034900 3.384400 -1.907700 0
M  V30 13 C -2.137600 4.241200 -1.951600 0
M  V30 14 C -3.036100 4.261400 -0.887100 0
M  V30 15 C -2.830100 3.425700 0.213200 0
M  V30 16 C -1.735400 2.556100 0.281400 0
M  V30 17 C -1.531100 1.763100 1.552800 0
M  V30 18 N -1.576400 0.259300 1.495600 0
M  V30 19 C -1.037900 -0.242300 2.800200 0
M  V30 20 C 0.470300 -0.276600 2.747700 0
M  V30 21 N 1.009400 -0.736000 1.581800 0
M  V30 22 C 2.359500 -0.816300 1.460100 0
M  V30 23 N 2.852300 -1.266000 0.246300 0
M  V30 24 C 4.010500 -0.757600 -0.383800 0
M  V30 25 O 4.630800 0.158700 0.124100 0
M  V30 26 C 4.338500 -1.358100 -1.756500 0
M  V30 27 C 5.835700 -1.130200 -2.035400 0
M  V30 28 H 6.096600 -0.073300 -1.949400 0
M  V30 29 H 6.457400 -1.690100 -1.329400 0
M  V30 30 H 6.075200 -1.471300 -3.047300 0
M  V30 31 C 4.015900 -2.863700 -1.839600 0
M  V30 32 H 4.353200 -3.250800 -2.805800 0
M  V30 33 H 4.528300 -3.429700 -1.054900 0
M  V30 34 H 2.941700 -3.079200 -1.773800 0
M  V30 35 C 3.489500 -0.568300 -2.785700 0
M  V30 36 H 3.745300 0.496300 -2.766700 0
M  V30 37 H 3.689100 -0.947200 -3.793300 0
M  V30 38 H 2.414400 -0.668900 -2.591100 0
M  V30 39 H 2.241400 -1.856700 -0.306900 0
M  V30 40 C 3.211200 -0.429100 2.511100 0
M  V30 41 C 2.652200 0.053100 3.681400 0
M  V30 42 C 1.256000 0.137900 3.806200 0
M  V30 43 H 0.797500 0.520300 4.711800 0
M  V30 44 H 3.293800 0.366800 4.498800 0
M  V30 45 H 4.281600 -0.497400 2.380700 0
M  V30 46 H -1.384100 0.384800 3.629400 0
M  V30 47 H -1.412500 -1.250300 2.982200 0
M  V30 48 C -2.921500 -0.294400 1.147300 0
M  V30 49 C -2.854900 -1.812900 1.264500 0
M  V30 50 N -1.721300 -2.339800 0.755000 0
M  V30 51 C -1.547100 -3.670200 0.749300 0
M  V30 52 C -2.512800 -4.537300 1.258000 0
M  V30 53 C -3.686500 -3.997300 1.785100 0
M  V30 54 C -3.863300 -2.608200 1.790700 0
M  V30 55 H -4.763100 -2.159400 2.198900 0
M  V30 56 H -4.456500 -4.645900 2.191300 0
M  V30 57 H -2.343200 -5.608400 1.239500 0
M  V30 58 H -0.614100 -4.028300 0.327100 0
M  V30 59 C -3.200500 0.004200 -0.321400 0
M  V30 60 N -2.148600 -0.232600 -1.130000 0
M  V30 61 C -2.279300 -0.078300 -2.456800 0
M  V30 62 C -3.484300 0.311900 -3.035100 0
M  V30 63 C -4.578700 0.550700 -2.202200 0
M  V30 64 C -4.436400 0.393000 -0.820200 0
M  V30 65 H -5.266800 0.577500 -0.146500 0
M  V30 66 H -5.532100 0.857600 -2.621000 0
M  V30 67 H -3.558000 0.423900 -4.111200 0
M  V30 68 H -1.392400 -0.266800 -3.052900 0
M  V30 69 H -3.711800 0.113300 1.788700 0
M  V30 70 H -0.551800 2.000000 1.974800 0
M  V30 71 H -2.273700 2.088200 2.293000 0
M  V30 72 H -3.531300 3.459100 1.043300 0
M  V30 73 H -3.891500 4.929500 -0.904100 0
M  V30 74 H -2.281700 4.891300 -2.808700 0
M  V30 75 H -0.327700 3.366200 -2.731200 0
M  V30 76 N 0.376000 -1.936000 -1.370200 0
M  V30 77 N 0.236000 -2.531900 -2.423000 0 CHG=1 VAL=4
M  V30 78 N 0.128500 -3.092800 -3.416200 0 CHG=-1 VAL=2
M  V30 END ATOM
M  V30 BEGIN BOND
M  V30 1 1 67 62
M  V30 2 1 37 35
M  V30 3 2 78 77
M  V30 4 1 68 61
M  V30 5 1 30 27
M  V30 6 1 62 61
M  V30 7 2 62 63
M  V30 8 1 74 13
M  V30 9 1 32 31
M  V30 10 1 35 36
M  V30 11 1 35 38
M  V30 12 1 35 26
M  V30 13 1 75 12
M  V30 14 1 66 63
M  V30 15 2 61 60
M  V30 16 2 77 76
M  V30 17 1 63 64
M  V30 18 1 27 28
M  V30 19 1 27 26
M  V30 20 1 27 29
M  V30 21 1 13 12
M  V30 22 2 13 14
M  V30 23 2 12 11
M  V30 24 1 31 34
M  V30 25 1 31 26
M  V30 26 1 31 33
M  V30 27 1 26 24
M  V30 28 1 60 59
M  V30 29 1 73 14
M  V30 30 1 2 11
M  V30 31 1 2 3
M  V30 32 1 14 15
M  V30 33 2 64 59
M  V30 34 1 64 65
M  V30 35 1 11 16
M  V30 36 1 7 4
M  V30 37 2 24 25
M  V30 38 1 24 23
M  V30 39 1 59 48
M  V30 40 1 39 23
M  V30 41 1 8 4
M  V30 42 1 4 3
M  V30 43 1 4 5
M  V30 44 1 9 3
M  V30 45 2 15 16
M  V30 46 1 15 72
M  V30 47 1 23 22
M  V30 48 1 16 17
M  V30 49 1 58 51
M  V30 50 1 3 10
M  V30 51 2 51 50
M  V30 52 1 51 52
M  V30 53 1 50 49
M  V30 54 1 48 49
M  V30 55 1 48 18
M  V30 56 1 48 69
M  V30 57 1 57 52
M  V30 58 2 52 53
M  V30 59 2 49 54
M  V30 60 2 5 6
M  V30 61 2 22 21
M  V30 62 1 22 40
M  V30 63 1 18 17
M  V30 64 1 18 19
M  V30 65 1 17 70
M  V30 66 1 17 71
M  V30 67 1 21 20
M  V30 68 1 53 54
M  V30 69 1 53 56
M  V30 70 1 54 55
M  V30 71 1 45 40
M  V30 72 2 40 41
M  V30 73 1 20 19
M  V30 74 2 20 42
M  V30 75 1 19 47
M  V30 76 1 19 46
M  V30 77 1 41 42
M  V30 78 1 41 44
M  V30 79 1 42 43
M  V30 80 1 1 76
M  V30 81 9 2 1
M  V30 82 9 21 1
M  V30 83 9 50 1
M  V30 84 9 60 1
M  V30 END BOND
M  V30 END CTAB
M  END
