
     RDKit          3D

  0  0  0  0  0  0  0  0  0  0999 V3000
M  V30 BEGIN CTAB
M  V30 COUNTS 77 84 0 0 0
M  V30 BEGIN ATOM
M  V30 1 Fe -0.351800 -0.901340 -0.327610 0 CHG=2 VAL=6
M  V30 2 S 0.604500 1.515960 -0.745610 0 RAD=2 VAL=3
M  V30 3 C 1.801190 1.951620 0.596300 0
M  V30 4 C 2.074090 3.463130 0.696110 0
M  V30 5 C 2.893320 3.687870 1.889570 0
M  V30 6 N 3.512420 3.782100 2.865870 0
M  V30 7 H 2.595140 3.826310 -0.196250 0
M  V30 8 H 1.141250 4.030490 0.790350 0
M  V30 9 H 2.721120 1.419260 0.341980 0
M  V30 10 H 1.436500 1.562630 1.547460 0
M  V30 11 C -0.816160 2.578610 -0.440970 0
M  V30 12 C -1.020530 3.598910 -1.377110 0
M  V30 13 C -2.116030 4.457720 -1.258070 0
M  V30 14 C -3.011390 4.288890 -0.204160 0
M  V30 15 C -2.809470 3.263200 0.722440 0
M  V30 16 C -1.721940 2.387360 0.624960 0
M  V30 17 C -1.521990 1.372640 1.728330 0
M  V30 18 N -1.577170 -0.093860 1.395400 0
M  V30 19 C -1.040990 -0.830400 2.584700 0
M  V30 20 C 0.467750 -0.864630 2.521280 0
M  V30 21 N 0.998570 -1.093260 1.285540 0
M  V30 22 C 2.348170 -1.164160 1.134720 0
M  V30 23 N 2.822900 -1.369340 -0.146400 0
M  V30 24 C 3.996660 -0.776860 -0.667140 0
M  V30 25 O 4.650450 -0.007100 0.013080 0
M  V30 26 C 4.296970 -1.098570 -2.135990 0
M  V30 27 C 5.765130 -0.733470 -2.417440 0
M  V30 28 H 5.967150 0.311900 -2.173120 0
M  V30 29 H 6.445730 -1.353660 -1.825900 0
M  V30 30 H 5.985570 -0.896140 -3.476960 0
M  V30 31 C 4.051420 -2.586360 -2.463970 0
M  V30 32 H 4.364510 -2.782230 -3.494260 0
M  V30 33 H 4.631410 -3.243530 -1.807830 0
M  V30 34 H 2.994250 -2.869880 -2.391220 0
M  V30 35 C 3.360590 -0.203860 -2.989060 0
M  V30 36 H 3.525220 0.857100 -2.769950 0
M  V30 37 H 3.575430 -0.364080 -4.050800 0
M  V30 38 H 2.303680 -0.439570 -2.816570 0
M  V30 39 H 2.181100 -1.795030 -0.812990 0
M  V30 40 C 3.207200 -1.001270 2.239490 0
M  V30 41 C 2.657950 -0.752070 3.484010 0
M  V30 42 C 1.262420 -0.674880 3.634280 0
M  V30 43 H 0.813850 -0.472610 4.600880 0
M  V30 44 H 3.306800 -0.613850 4.343080 0
M  V30 45 H 4.276170 -1.055160 2.092730 0
M  V30 46 H -1.380910 -0.364170 3.516230 0
M  V30 47 H -1.422330 -1.852170 2.579550 0
M  V30 48 C -2.921900 -0.565110 0.940550 0
M  V30 49 C -2.861830 -2.080200 0.781540 0
M  V30 50 N -1.728540 -2.506560 0.185880 0
M  V30 51 C -1.546480 -3.812490 -0.059260 0
M  V30 52 C -2.509150 -4.759330 0.288200 0
M  V30 53 C -3.684060 -4.325270 0.903600 0
M  V30 54 C -3.867060 -2.959790 1.157400 0
M  V30 55 H -4.767940 -2.594970 1.640180 0
M  V30 56 H -4.451110 -5.038830 1.188410 0
M  V30 57 H -2.336660 -5.809660 0.080130 0
M  V30 58 H -0.611160 -4.078820 -0.540070 0
M  V30 59 C -3.181450 -0.002970 -0.453810 0
M  V30 60 N -2.124860 -0.107030 -1.284480 0
M  V30 61 C -2.235840 0.284400 -2.563520 0
M  V30 62 C -3.427520 0.794800 -3.071370 0
M  V30 63 C -4.527140 0.899510 -2.217600 0
M  V30 64 C -4.404560 0.491660 -0.885660 0
M  V30 65 H -5.240010 0.567000 -0.197270 0
M  V30 66 H -5.470100 1.295310 -2.581880 0
M  V30 67 H -3.487780 1.101220 -4.109890 0
M  V30 68 H -1.342410 0.186410 -3.172010 0
M  V30 69 H -3.718100 -0.274720 1.636220 0
M  V30 70 H -0.541010 1.521750 2.185340 0
M  V30 71 H -2.262150 1.560870 2.516890 0
M  V30 72 H -3.507950 3.148780 1.547500 0
M  V30 73 H -3.860940 4.955550 -0.094020 0
M  V30 74 H -2.256820 5.255650 -1.980310 0
M  V30 75 H -0.315700 3.727410 -2.192870 0
M  V30 76 O 0.465890 -1.782280 -1.688040 0
M  V30 77 H 0.185010 -2.190210 -2.522360 0
M  V30 END ATOM
M  V30 BEGIN BOND
M  V30 1 1 67 62
M  V30 2 1 37 35
M  V30 3 1 32 31
M  V30 4 1 30 27
M  V30 5 1 68 61
M  V30 6 1 62 61
M  V30 7 2 62 63
M  V30 8 1 35 38
M  V30 9 1 35 36
M  V30 10 1 35 26
M  V30 11 1 66 63
M  V30 12 2 61 60
M  V30 13 1 77 76
M  V30 14 1 31 34
M  V30 15 1 31 26
M  V30 16 1 31 33
M  V30 17 1 27 28
M  V30 18 1 27 26
M  V30 19 1 27 29
M  V30 20 1 63 64
M  V30 21 1 75 12
M  V30 22 1 26 24
M  V30 23 1 74 13
M  V30 24 1 76 1
M  V30 25 1 12 13
M  V30 26 2 12 11
M  V30 27 1 60 59
M  V30 28 2 13 14
M  V30 29 2 64 59
M  V30 30 1 64 65
M  V30 31 1 39 23
M  V30 32 1 2 11
M  V30 33 1 2 1
M  V30 34 1 2 3
M  V30 35 1 24 23
M  V30 36 2 24 25
M  V30 37 1 58 51
M  V30 38 1 59 48
M  V30 39 1 11 16
M  V30 40 1 14 73
M  V30 41 1 14 15
M  V30 42 1 7 4
M  V30 43 1 23 22
M  V30 44 2 51 50
M  V30 45 1 51 52
M  V30 46 1 57 52
M  V30 47 1 50 49
M  V30 48 2 52 53
M  V30 49 1 9 3
M  V30 50 1 3 4
M  V30 51 1 3 10
M  V30 52 2 16 15
M  V30 53 1 16 17
M  V30 54 1 4 8
M  V30 55 1 4 5
M  V30 56 1 15 72
M  V30 57 1 49 48
M  V30 58 2 49 54
M  V30 59 1 53 54
M  V30 60 1 53 56
M  V30 61 1 48 18
M  V30 62 1 48 69
M  V30 63 2 22 21
M  V30 64 1 22 40
M  V30 65 1 54 55
M  V30 66 1 21 20
M  V30 67 1 18 17
M  V30 68 1 18 19
M  V30 69 1 17 70
M  V30 70 1 17 71
M  V30 71 3 5 6
M  V30 72 1 45 40
M  V30 73 2 40 41
M  V30 74 1 20 19
M  V30 75 2 20 42
M  V30 76 1 47 19
M  V30 77 1 19 46
M  V30 78 1 41 42
M  V30 79 1 41 44
M  V30 80 1 42 43
M  V30 81 9 18 1
M  V30 82 9 21 1
M  V30 83 9 50 1
M  V30 84 9 60 1
M  V30 END BOND
M  V30 END CTAB
M  END
