
     RDKit          3D

  0  0  0  0  0  0  0  0  0  0999 V3000
M  V30 BEGIN CTAB
M  V30 COUNTS 78 85 0 0 0
M  V30 BEGIN ATOM
M  V30 1 Fe -0.363470 -0.731470 0.187830 0 CHG=2 VAL=6
M  V30 2 S 0.546710 1.375800 -1.092610 0 RAD=2 VAL=3
M  V30 3 C 1.689860 2.334260 0.001000 0
M  V30 4 C 1.910640 3.781500 -0.473950 0
M  V30 5 C 2.690010 4.472210 0.556360 0
M  V30 6 N 3.279730 4.951720 1.432520 0
M  V30 7 H 2.443210 3.802230 -1.430850 0
M  V30 8 H 0.957660 4.304480 -0.612690 0
M  V30 9 H 2.633940 1.784370 -0.018610 0
M  V30 10 H 1.310670 2.318960 1.023250 0
M  V30 11 C -0.912990 2.419840 -1.231280 0
M  V30 12 C -1.127940 3.000100 -2.486440 0
M  V30 13 C -2.252560 3.797660 -2.712290 0
M  V30 14 C -3.165180 4.008250 -1.680970 0
M  V30 15 C -2.951940 3.419300 -0.432320 0
M  V30 16 C -1.835840 2.613100 -0.180360 0
M  V30 17 C -1.630840 2.096680 1.226440 0
M  V30 18 N -1.635950 0.611310 1.468910 0
M  V30 19 C -1.110630 0.393190 2.853940 0
M  V30 20 C 0.398640 0.396170 2.830130 0
M  V30 21 N 0.972820 -0.260570 1.781650 0
M  V30 22 C 2.326350 -0.317090 1.694030 0
M  V30 23 N 2.857470 -0.969560 0.592970 0
M  V30 24 C 4.024960 -0.559770 -0.091710 0
M  V30 25 O 4.599170 0.461340 0.240070 0
M  V30 26 C 4.426420 -1.416620 -1.297970 0
M  V30 27 C 5.914160 -1.156250 -1.597720 0
M  V30 28 H 6.106890 -0.091750 -1.747640 0
M  V30 29 H 6.548180 -1.500960 -0.774750 0
M  V30 30 H 6.204000 -1.697690 -2.503510 0
M  V30 31 C 4.201080 -2.922150 -1.050840 0
M  V30 32 H 4.580680 -3.487010 -1.907730 0
M  V30 33 H 4.735450 -3.266890 -0.159570 0
M  V30 34 H 3.143120 -3.190150 -0.943370 0
M  V30 35 C 3.562290 -0.927100 -2.488580 0
M  V30 36 H 3.753270 0.130720 -2.698710 0
M  V30 37 H 3.817130 -1.501480 -3.385100 0
M  V30 38 H 2.490250 -1.054730 -2.298810 0
M  V30 39 H 2.280360 -1.679050 0.155740 0
M  V30 40 C 3.145740 0.288400 2.664910 0
M  V30 41 C 2.550850 0.965350 3.714720 0
M  V30 42 C 1.150830 1.029680 3.800810 0
M  V30 43 H 0.663780 1.563700 4.609560 0
M  V30 44 H 3.167410 1.447370 4.466740 0
M  V30 45 H 4.220010 0.231150 2.565470 0
M  V30 46 H -1.490390 1.159670 3.538890 0
M  V30 47 H -1.460480 -0.570800 3.225080 0
M  V30 48 C -2.959980 -0.037840 1.219270 0
M  V30 49 C -2.858130 -1.501050 1.635780 0
M  V30 50 N -1.703340 -2.086680 1.253950 0
M  V30 51 C -1.498930 -3.388580 1.504040 0
M  V30 52 C -2.453440 -4.166160 2.158160 0
M  V30 53 C -3.647570 -3.565090 2.557590 0
M  V30 54 C -3.856990 -2.205990 2.292420 0
M  V30 55 H -4.774650 -1.710980 2.593510 0
M  V30 56 H -4.409300 -4.143130 3.071640 0
M  V30 57 H -2.259800 -5.216380 2.347220 0
M  V30 58 H -0.553030 -3.797380 1.165150 0
M  V30 59 C -3.217570 -0.047470 -0.283640 0
M  V30 60 N -2.145970 -0.419700 -1.010800 0
M  V30 61 C -2.253080 -0.554370 -2.341360 0
M  V30 62 C -3.454660 -0.321180 -3.005410 0
M  V30 63 C -4.568850 0.062560 -2.257160 0
M  V30 64 C -4.451300 0.198710 -0.870370 0
M  V30 65 H -5.298970 0.497430 -0.262270 0
M  V30 66 H -5.519710 0.253310 -2.745010 0
M  V30 67 H -3.511240 -0.440330 -4.081810 0
M  V30 68 H -1.351480 -0.852880 -2.866030 0
M  V30 69 H -3.772570 0.466570 1.755560 0
M  V30 70 H -0.665390 2.441320 1.603570 0
M  V30 71 H -2.393890 2.541310 1.878500 0
M  V30 72 H -3.665050 3.599840 0.368030 0
M  V30 73 H -4.037610 4.634270 -1.839900 0
M  V30 74 H -2.402640 4.255500 -3.684910 0
M  V30 75 H -0.409170 2.835880 -3.283390 0
M  V30 76 N 0.406290 -2.072050 -0.888830 0
M  V30 77 C 0.467620 -2.928430 -1.743610 0
M  V30 78 S 0.569080 -4.037740 -2.860000 0
M  V30 END ATOM
M  V30 BEGIN BOND
M  V30 1 1 67 62
M  V30 2 1 74 13
M  V30 3 1 37 35
M  V30 4 1 75 12
M  V30 5 1 62 61
M  V30 6 2 62 63
M  V30 7 1 68 61
M  V30 8 2 78 77
M  V30 9 1 66 63
M  V30 10 1 13 12
M  V30 11 2 13 14
M  V30 12 1 36 35
M  V30 13 1 30 27
M  V30 14 1 35 38
M  V30 15 1 35 26
M  V30 16 2 12 11
M  V30 17 2 61 60
M  V30 18 1 63 64
M  V30 19 1 32 31
M  V30 20 1 73 14
M  V30 21 1 28 27
M  V30 22 2 77 76
M  V30 23 1 14 15
M  V30 24 1 27 26
M  V30 25 1 27 29
M  V30 26 1 7 4
M  V30 27 1 26 31
M  V30 28 1 26 24
M  V30 29 1 11 2
M  V30 30 1 11 16
M  V30 31 1 2 3
M  V30 32 1 2 1
M  V30 33 1 31 34
M  V30 34 1 31 33
M  V30 35 1 60 59
M  V30 36 1 76 1
M  V30 37 2 64 59
M  V30 38 1 64 65
M  V30 39 1 8 4
M  V30 40 1 4 3
M  V30 41 1 4 5
M  V30 42 2 15 16
M  V30 43 1 15 72
M  V30 44 1 59 48
M  V30 45 1 16 17
M  V30 46 2 24 25
M  V30 47 1 24 23
M  V30 48 1 9 3
M  V30 49 1 3 10
M  V30 50 1 39 23
M  V30 51 3 5 6
M  V30 52 1 23 22
M  V30 53 1 58 51
M  V30 54 1 48 18
M  V30 55 1 48 49
M  V30 56 1 48 69
M  V30 57 1 17 18
M  V30 58 1 17 70
M  V30 59 1 17 71
M  V30 60 2 50 51
M  V30 61 1 50 49
M  V30 62 1 18 19
M  V30 63 1 51 52
M  V30 64 2 49 54
M  V30 65 2 22 21
M  V30 66 1 22 40
M  V30 67 1 21 20
M  V30 68 1 52 57
M  V30 69 2 52 53
M  V30 70 1 54 53
M  V30 71 1 54 55
M  V30 72 1 53 56
M  V30 73 1 45 40
M  V30 74 2 40 41
M  V30 75 1 20 19
M  V30 76 2 20 42
M  V30 77 1 19 47
M  V30 78 1 19 46
M  V30 79 1 41 42
M  V30 80 1 41 44
M  V30 81 1 42 43
M  V30 82 9 18 1
M  V30 83 9 21 1
M  V30 84 9 50 1
M  V30 85 9 60 1
M  V30 END BOND
M  V30 END CTAB
M  END
