
     RDKit          3D

  0  0  0  0  0  0  0  0  0  0999 V3000
M  V30 BEGIN CTAB
M  V30 COUNTS 73 82 0 0 0
M  V30 BEGIN ATOM
M  V30 1 Fe 0.067720 -0.582870 -0.222980 0 CHG=2 VAL=6
M  V30 2 C 1.979300 -1.543800 -2.473070 0
M  V30 3 C 2.815090 -2.414740 -3.162460 0
M  V30 4 C 3.036260 -3.688050 -2.634370 0
M  V30 5 C 2.413260 -4.045710 -1.437110 0
M  V30 6 C 1.597460 -3.116680 -0.799280 0
M  V30 7 C 0.946510 -3.382990 0.538350 0
M  V30 8 C -1.424660 -3.292550 -0.095990 0
M  V30 9 C -2.204880 -2.377130 -1.020450 0
M  V30 10 C -3.457820 -2.741950 -1.507540 0
M  V30 11 C -4.112010 -1.892350 -2.401120 0
M  V30 12 C -3.494880 -0.700290 -2.784710 0
M  V30 13 C -2.245460 -0.402000 -2.256240 0
M  V30 14 C -0.675110 -2.205490 2.028260 0
M  V30 15 C 0.455720 -1.355250 2.598520 0
M  V30 16 C 0.741010 -1.298340 3.954740 0
M  V30 17 C 1.693280 -0.372020 4.392850 0
M  V30 18 C 2.352630 0.423100 3.460130 0
M  V30 19 C 2.054710 0.280370 2.100530 0
M  V30 20 C 2.816280 1.003430 1.059660 0
M  V30 21 C 2.844800 2.400490 0.975330 0
M  V30 22 C 3.555110 3.074660 -0.008390 0
M  V30 23 C 4.284000 2.330130 -0.938460 0
M  V30 24 C 4.301120 0.933380 -0.886550 0
M  V30 25 C 3.573340 0.305320 0.111510 0
M  V30 26 C -1.903720 -1.310360 1.950640 0
M  V30 27 C -3.102340 -1.562480 2.600160 0
M  V30 28 C -4.143480 -0.639380 2.436080 0
M  V30 29 C -3.925300 0.507280 1.681250 0
M  V30 30 C -2.671690 0.713100 1.082170 0
M  V30 31 C -2.339790 1.971820 0.388530 0
M  V30 32 C -3.151620 2.528630 -0.606740 0
M  V30 33 C -2.863750 3.738020 -1.222880 0
M  V30 34 C -1.725680 4.439110 -0.813690 0
M  V30 35 C -0.884690 3.931590 0.180800 0
M  V30 36 C -1.206530 2.712790 0.754380 0
M  V30 37 N 1.383550 -1.889460 -1.317670 0
M  V30 38 N -0.320540 -2.612550 0.637210 0
M  V30 39 N -1.617870 -1.224120 -1.393570 0
M  V30 40 N 1.088020 -0.573740 1.695500 0
M  V30 41 N -1.704110 -0.217780 1.188430 0
M  V30 42 H 1.770730 -0.544610 -2.835510 0
M  V30 43 H 3.275760 -2.100800 -4.092770 0
M  V30 44 H 3.679060 -4.395490 -3.149060 0
M  V30 45 H 2.562660 -5.028550 -1.001380 0
M  V30 46 H 0.777080 -4.454240 0.698970 0
M  V30 47 H 1.627020 -3.039320 1.321060 0
M  V30 48 H -2.102390 -3.792970 0.605210 0
M  V30 49 H -0.977930 -4.079350 -0.712710 0
M  V30 50 H -3.914480 -3.674520 -1.190380 0
M  V30 51 H -5.091960 -2.155690 -2.787000 0
M  V30 52 H -3.974070 -0.007180 -3.466600 0
M  V30 53 H -1.726720 0.518720 -2.494120 0
M  V30 54 H -0.867190 -3.075620 2.668040 0
M  V30 55 H 0.223420 -1.946700 4.654200 0
M  V30 56 H 1.928650 -0.287370 5.449180 0
M  V30 57 H 3.114260 1.132050 3.763780 0
M  V30 58 F 2.135230 3.104900 1.874090 0
M  V30 59 H 3.537430 4.158310 -0.029580 0
M  V30 60 H 4.851860 2.844140 -1.706960 0
M  V30 61 H 4.884660 0.338800 -1.580220 0
M  V30 62 F 3.598440 -1.045740 0.195260 0
M  V30 63 H -3.226250 -2.450070 3.212070 0
M  V30 64 H -5.103770 -0.806020 2.914200 0
M  V30 65 H -4.697350 1.259060 1.566700 0
M  V30 66 F -4.240150 1.829080 -0.991900 0
M  V30 67 H -3.526250 4.117670 -1.992360 0
M  V30 68 H -1.491350 5.391770 -1.277150 0
M  V30 69 H 0.002560 4.455690 0.516910 0
M  V30 70 F -0.402890 2.205120 1.711890 0
M  V30 71 N 0.474230 0.993160 -1.144940 0
M  V30 72 C 0.752060 1.858480 -1.938090 0
M  V30 73 S 1.105870 2.984200 -2.991020 0
M  V30 END ATOM
M  V30 BEGIN BOND
M  V30 1 1 43 3
M  V30 2 1 52 12
M  V30 3 1 3 4
M  V30 4 2 3 2
M  V30 5 1 44 4
M  V30 6 2 73 72
M  V30 7 1 42 2
M  V30 8 1 51 11
M  V30 9 1 12 11
M  V30 10 2 12 13
M  V30 11 2 4 5
M  V30 12 1 53 13
M  V30 13 1 2 37
M  V30 14 2 11 10
M  V30 15 1 13 39
M  V30 16 1 67 33
M  V30 17 2 72 71
M  V30 18 1 60 23
M  V30 19 1 61 24
M  V30 20 1 10 50
M  V30 21 1 10 9
M  V30 22 1 5 45
M  V30 23 1 5 6
M  V30 24 2 39 9
M  V30 25 2 37 6
M  V30 26 1 68 34
M  V30 27 1 33 34
M  V30 28 2 33 32
M  V30 29 1 71 1
M  V30 30 1 9 8
M  V30 31 1 66 32
M  V30 32 2 23 24
M  V30 33 1 23 22
M  V30 34 1 24 25
M  V30 35 2 34 35
M  V30 36 1 6 7
M  V30 37 1 49 8
M  V30 38 1 32 31
M  V30 39 1 8 48
M  V30 40 1 8 38
M  V30 41 1 59 22
M  V30 42 2 22 21
M  V30 43 1 25 62
M  V30 44 2 25 20
M  V30 45 1 35 69
M  V30 46 1 35 36
M  V30 47 2 31 36
M  V30 48 1 31 30
M  V30 49 1 7 38
M  V30 50 1 7 46
M  V30 51 1 7 47
M  V30 52 1 38 14
M  V30 53 1 36 70
M  V30 54 1 21 20
M  V30 55 1 21 58
M  V30 56 1 20 19
M  V30 57 2 30 41
M  V30 58 1 30 29
M  V30 59 1 41 26
M  V30 60 1 65 29
M  V30 61 2 29 28
M  V30 62 2 40 19
M  V30 63 1 40 15
M  V30 64 1 26 14
M  V30 65 2 26 27
M  V30 66 1 14 15
M  V30 67 1 14 54
M  V30 68 1 19 18
M  V30 69 1 28 27
M  V30 70 1 28 64
M  V30 71 2 15 16
M  V30 72 1 27 63
M  V30 73 1 18 57
M  V30 74 2 18 17
M  V30 75 1 16 17
M  V30 76 1 16 55
M  V30 77 1 17 56
M  V30 78 9 37 1
M  V30 79 9 38 1
M  V30 80 9 39 1
M  V30 81 9 40 1
M  V30 82 9 41 1
M  V30 END BOND
M  V30 END CTAB
M  END
