
     RDKit          3D

  0  0  0  0  0  0  0  0  0  0999 V3000
M  V30 BEGIN CTAB
M  V30 COUNTS 73 80 0 0 0
M  V30 BEGIN ATOM
M  V30 1 Fe 0.066130 -0.584910 -0.236390 0 CHG=1 RAD=2 VAL=4
M  V30 2 C 1.878700 -1.954200 -2.348400 0
M  V30 3 C 2.692600 -2.937900 -2.897600 0
M  V30 4 C 2.949400 -4.087300 -2.147300 0
M  V30 5 C 2.382500 -4.212200 -0.877600 0
M  V30 6 C 1.585300 -3.180400 -0.391900 0
M  V30 7 C 0.993200 -3.189200 0.998800 0
M  V30 8 C -1.403500 -3.208700 0.460400 0
M  V30 9 C -2.231600 -2.476800 -0.578900 0
M  V30 10 C -3.505000 -2.919800 -0.929100 0
M  V30 11 C -4.205100 -2.247300 -1.932000 0
M  V30 12 C -3.612900 -1.149100 -2.558500 0
M  V30 13 C -2.341100 -0.764200 -2.154300 0
M  V30 14 C -0.567400 -1.747900 2.309800 0 CFG=1
M  V30 15 C 0.583700 -0.812500 2.665700 0 CHG=1 VAL=3
M  V30 16 C 0.920900 -0.515000 3.977900 0
M  V30 17 C 1.881800 0.474900 4.206800 0
M  V30 18 C 2.494800 1.092400 3.121300 0
M  V30 19 C 2.145000 0.709800 1.820900 0
M  V30 20 C 2.866900 1.250600 0.649000 0
M  V30 21 C 2.916400 2.620800 0.361800 0
M  V30 22 C 3.616200 3.133200 -0.722500 0
M  V30 23 C 4.311000 2.248900 -1.550600 0
M  V30 24 C 4.302600 0.873400 -1.299900 0
M  V30 25 C 3.589300 0.409100 -0.205900 0
M  V30 26 C -1.800000 -0.874100 2.122000 0
M  V30 27 C -2.966800 -0.992200 2.861700 0
M  V30 28 C -4.013300 -0.103900 2.581800 0
M  V30 29 C -3.829600 0.884800 1.621900 0
M  V30 30 C -2.606100 0.964600 0.937100 0
M  V30 31 C -2.306600 2.071500 0.008500 0
M  V30 32 C -3.156300 2.431000 -1.043700 0
M  V30 33 C -2.892900 3.496100 -1.893900 0
M  V30 34 C -1.740900 4.255700 -1.672400 0
M  V30 35 C -0.862600 3.944900 -0.629500 0
M  V30 36 C -1.160800 2.862200 0.181800 0
M  V30 37 N 1.337200 -2.074400 -1.123300 0
M  V30 38 N -0.271200 -2.408200 1.005700 0
M  V30 39 N -1.668200 -1.415300 -1.186500 0
M  V30 40 N 1.173300 -0.206600 1.610800 0 RAD=2 VAL=2
M  V30 41 N -1.635800 0.059200 1.164700 0
M  V30 42 H 1.641600 -1.042700 -2.884200 0
M  V30 43 H 3.109100 -2.806100 -3.890200 0
M  V30 44 H 3.576600 -4.878400 -2.546500 0
M  V30 45 H 2.560300 -5.094500 -0.270800 0
M  V30 46 H 0.834700 -4.210800 1.364000 0
M  V30 47 H 1.704600 -2.708200 1.674400 0
M  V30 48 H -2.044900 -3.571000 1.272100 0
M  V30 49 H -0.980100 -4.095900 -0.021900 0
M  V30 50 H -3.941900 -3.775300 -0.423200 0
M  V30 51 H -5.201300 -2.573300 -2.215000 0
M  V30 52 H -4.127900 -0.591700 -3.332400 0
M  V30 53 H -1.838000 0.095400 -2.580900 0
M  V30 54 H -0.730200 -2.483300 3.107300 0
M  V30 55 H 0.435300 -1.028800 4.801100 0
M  V30 56 H 2.158200 0.746600 5.220700 0
M  V30 57 H 3.259900 1.846900 3.263100 0
M  V30 58 F 2.237800 3.460900 1.162700 0
M  V30 59 H 3.614000 4.202500 -0.900200 0
M  V30 60 H 4.868800 2.636000 -2.396900 0
M  V30 61 H 4.859100 0.173700 -1.913200 0
M  V30 62 F 3.596700 -0.915600 0.071700 0
M  V30 63 H -3.062300 -1.752400 3.630300 0
M  V30 64 H -4.949800 -0.171300 3.126700 0
M  V30 65 H -4.604800 1.611700 1.409400 0
M  V30 66 F -4.258000 1.677400 -1.245400 0
M  V30 67 H -3.585500 3.724400 -2.696000 0
M  V30 68 H -1.524900 5.099500 -2.319500 0
M  V30 69 H 0.033100 4.522800 -0.431700 0
M  V30 70 F -0.320300 2.547000 1.189300 0
M  V30 71 N 0.435500 0.807700 -1.395700 0
M  V30 72 N 0.814600 1.658800 -2.164000 0 CHG=1 VAL=4
M  V30 73 N 1.166600 2.478900 -2.886800 0 CHG=-1 VAL=2
M  V30 END ATOM
M  V30 BEGIN BOND
M  V30 1 1 43 3
M  V30 2 1 52 12
M  V30 3 2 3 2
M  V30 4 1 3 4
M  V30 5 2 73 72
M  V30 6 1 42 2
M  V30 7 1 67 33
M  V30 8 1 53 13
M  V30 9 2 12 13
M  V30 10 1 12 11
M  V30 11 1 44 4
M  V30 12 1 60 23
M  V30 13 1 2 37
M  V30 14 1 68 34
M  V30 15 1 51 11
M  V30 16 2 72 71
M  V30 17 1 13 39
M  V30 18 2 4 5
M  V30 19 2 11 10
M  V30 20 1 61 24
M  V30 21 1 33 34
M  V30 22 2 33 32
M  V30 23 2 34 35
M  V30 24 2 23 24
M  V30 25 1 23 22
M  V30 26 1 24 25
M  V30 27 1 66 32
M  V30 28 2 39 9
M  V30 29 2 37 6
M  V30 30 1 32 31
M  V30 31 1 10 9
M  V30 32 1 10 50
M  V30 33 1 59 22
M  V30 34 1 5 6
M  V30 35 1 5 45
M  V30 36 2 22 21
M  V30 37 1 35 69
M  V30 38 1 35 36
M  V30 39 1 9 8
M  V30 40 1 6 7
M  V30 41 1 25 62
M  V30 42 2 25 20
M  V30 43 1 49 8
M  V30 44 2 31 36
M  V30 45 1 31 30
M  V30 46 1 36 70
M  V30 47 1 21 20
M  V30 48 1 21 58
M  V30 49 1 8 38
M  V30 50 1 8 48
M  V30 51 1 20 19
M  V30 52 2 30 41
M  V30 53 1 30 29
M  V30 54 1 7 38
M  V30 55 1 7 46
M  V30 56 1 7 47
M  V30 57 1 38 14
M  V30 58 1 41 26
M  V30 59 1 65 29
M  V30 60 1 40 19
M  V30 61 1 40 15
M  V30 62 2 29 28
M  V30 63 2 19 18
M  V30 64 1 26 14
M  V30 65 2 26 27
M  V30 66 1 14 15
M  V30 67 1 14 54 CFG=1
M  V30 68 1 28 27
M  V30 69 1 28 64
M  V30 70 1 15 16
M  V30 71 1 27 63
M  V30 72 1 18 57
M  V30 73 1 18 17
M  V30 74 2 16 17
M  V30 75 1 16 55
M  V30 76 1 17 56
M  V30 77 1 1 71
M  V30 78 9 37 1
M  V30 79 9 39 1
M  V30 80 9 41 1
M  V30 END BOND
M  V30 END CTAB
M  END
