
     RDKit          3D

  0  0  0  0  0  0  0  0  0  0999 V3000
M  V30 BEGIN CTAB
M  V30 COUNTS 74 82 0 0 0
M  V30 BEGIN ATOM
M  V30 1 Fe 0.185550 -0.116710 -0.210040 0 CHG=1 RAD=2 VAL=5
M  V30 2 C -3.687100 -2.674100 -1.129000 0
M  V30 3 H -4.387400 -2.685700 -0.298000 0
M  V30 4 C -4.164400 -2.674400 -2.438000 0
M  V30 5 H -5.234200 -2.692100 -2.622100 0
M  V30 6 C -3.267100 -2.639300 -3.508200 0
M  V30 7 H -3.639300 -2.638200 -4.528400 0
M  V30 8 C -1.892300 -2.602000 -3.264200 0
M  V30 9 H -1.190800 -2.580100 -4.093000 0
M  V30 10 C -1.408600 -2.592700 -1.956700 0
M  V30 11 H -0.341000 -2.555800 -1.772900 0
M  V30 12 C -2.305200 -2.623000 -0.877700 0
M  V30 13 C -1.821400 -2.658300 0.520600 0
M  V30 14 C -2.347100 -3.616600 1.408700 0
M  V30 15 H -3.088600 -4.317000 1.042000 0
M  V30 16 C -1.886200 -3.685500 2.714900 0
M  V30 17 H -2.271400 -4.437200 3.397200 0
M  V30 18 C -0.907600 -2.780700 3.134100 0
M  V30 19 H -0.517300 -2.797700 4.146400 0
M  V30 20 C -0.443800 -1.846400 2.219300 0
M  V30 21 C 0.508400 -0.730200 2.637100 0
M  V30 22 H 0.975400 -0.985500 3.598800 0
M  V30 23 C -0.366800 0.506700 2.797900 0
M  V30 24 C -0.900100 0.858600 4.033000 0
M  V30 25 H -0.606200 0.324100 4.930700 0
M  V30 26 C -1.832300 1.896800 4.076400 0
M  V30 27 H -2.278800 2.198500 5.019000 0
M  V30 28 C -2.167200 2.547900 2.895300 0
M  V30 29 H -2.868600 3.374800 2.890200 0
M  V30 30 C -1.556200 2.167000 1.688500 0
M  V30 31 C -1.847600 2.922300 0.447500 0
M  V30 32 C -0.803700 3.515500 -0.275100 0
M  V30 33 H 0.214800 3.398300 0.074800 0
M  V30 34 C -1.076900 4.257900 -1.421400 0
M  V30 35 H -0.262200 4.721900 -1.970700 0
M  V30 36 C -2.396200 4.413200 -1.857600 0
M  V30 37 H -2.609100 4.986200 -2.755100 0
M  V30 38 C -3.441400 3.835400 -1.134100 0
M  V30 39 H -4.466400 3.946300 -1.473700 0
M  V30 40 C -3.170900 3.100900 0.020800 0
M  V30 41 H -3.983600 2.640400 0.576000 0
M  V30 42 C 2.395600 0.654000 1.810800 0
M  V30 43 H 3.319000 0.353400 2.320000 0
M  V30 44 H 1.874300 1.355500 2.468300 0
M  V30 45 C 2.717000 1.367300 0.514500 0
M  V30 46 C 3.937400 2.003800 0.288600 0
M  V30 47 H 4.721000 1.956200 1.037600 0
M  V30 48 C 4.135200 2.671500 -0.917900 0
M  V30 49 H 5.080700 3.165200 -1.120400 0
M  V30 50 C 3.110500 2.684400 -1.868300 0
M  V30 51 H 3.231600 3.183400 -2.823600 0
M  V30 52 C 1.925400 2.022500 -1.572600 0
M  V30 53 H 1.091000 1.977900 -2.264500 0
M  V30 54 C 2.331200 -1.756700 1.337600 0
M  V30 55 H 1.621800 -2.567300 1.155900 0
M  V30 56 H 2.899200 -1.996800 2.248200 0
M  V30 57 C 3.248800 -1.613800 0.157000 0
M  V30 58 C 4.634500 -1.733500 0.272100 0
M  V30 59 H 5.073500 -1.924300 1.249300 0
M  V30 60 C 5.457800 -1.616100 -0.849600 0
M  V30 61 H 6.534200 -1.713100 -0.748300 0
M  V30 62 C 4.883300 -1.383300 -2.104600 0
M  V30 63 H 5.517700 -1.295000 -2.982200 0
M  V30 64 C 3.502700 -1.264600 -2.240800 0
M  V30 65 H 3.039600 -1.080000 -3.205100 0
M  V30 66 C 2.668100 -1.374000 -1.113800 0
M  V30 67 N -0.878200 -1.781700 0.941800 0
M  V30 68 N -0.678200 1.139300 1.650500 0
M  V30 69 N 1.518300 -0.520500 1.578600 0
M  V30 70 N 1.734500 1.391000 -0.402300 0
M  V30 71 O 1.351300 -1.213600 -1.236900 0 RAD=2 VAL=1
M  V30 72 N -1.122800 0.447700 -1.423300 0
M  V30 73 N -2.186900 0.595800 -1.964400 0 CHG=1 VAL=4
M  V30 74 N -3.197800 0.737600 -2.496600 0 CHG=-1 VAL=2
M  V30 END ATOM
M  V30 BEGIN BOND
M  V30 1 1 7 6
M  V30 2 1 9 8
M  V30 3 2 6 8
M  V30 4 1 6 4
M  V30 5 1 8 10
M  V30 6 1 65 64
M  V30 7 1 63 62
M  V30 8 1 51 50
M  V30 9 1 37 36
M  V30 10 1 5 4
M  V30 11 2 74 73
M  V30 12 2 4 2
M  V30 13 1 53 52
M  V30 14 2 64 62
M  V30 15 1 64 66
M  V30 16 1 62 60
M  V30 17 1 35 34
M  V30 18 2 73 72
M  V30 19 1 10 11
M  V30 20 2 10 12
M  V30 21 2 50 52
M  V30 22 1 50 48
M  V30 23 1 36 34
M  V30 24 2 36 38
M  V30 25 1 52 70
M  V30 26 1 39 38
M  V30 27 2 34 32
M  V30 28 1 71 66
M  V30 29 1 38 40
M  V30 30 1 2 12
M  V30 31 1 2 3
M  V30 32 1 49 48
M  V30 33 2 66 57
M  V30 34 2 48 46
M  V30 35 1 12 13
M  V30 36 1 60 61
M  V30 37 2 60 58
M  V30 38 2 70 45
M  V30 39 1 32 33
M  V30 40 1 32 31
M  V30 41 2 40 31
M  V30 42 1 40 41
M  V30 43 1 57 58
M  V30 44 1 57 54
M  V30 45 1 58 59
M  V30 46 1 46 45
M  V30 47 1 46 47
M  V30 48 1 31 30
M  V30 49 1 45 42
M  V30 50 1 13 67
M  V30 51 2 13 14
M  V30 52 2 67 20
M  V30 53 1 15 14
M  V30 54 1 55 54
M  V30 55 1 54 69
M  V30 56 1 54 56
M  V30 57 1 14 16
M  V30 58 1 69 42
M  V30 59 1 69 21
M  V30 60 2 68 30
M  V30 61 1 68 23
M  V30 62 1 30 28
M  V30 63 1 42 43
M  V30 64 1 42 44
M  V30 65 1 20 21
M  V30 66 1 20 18
M  V30 67 1 21 23
M  V30 68 1 21 22
M  V30 69 2 16 18
M  V30 70 1 16 17
M  V30 71 2 23 24
M  V30 72 1 29 28
M  V30 73 2 28 26
M  V30 74 1 18 19
M  V30 75 1 24 26
M  V30 76 1 24 25
M  V30 77 1 26 27
M  V30 78 1 1 72
M  V30 79 9 67 1
M  V30 80 9 68 1
M  V30 81 9 69 1
M  V30 82 9 70 1
M  V30 END BOND
M  V30 END CTAB
M  END
