
     RDKit          3D

  0  0  0  0  0  0  0  0  0  0999 V3000
M  V30 BEGIN CTAB
M  V30 COUNTS 73 82 0 0 0
M  V30 BEGIN ATOM
M  V30 1 Fe 0.107510 -0.126960 -0.315710 0 CHG=1 VAL=6
M  V30 2 C -3.838100 -2.447540 -1.383780 0
M  V30 3 H -4.583030 -2.429730 -0.592340 0
M  V30 4 C -4.241910 -2.423410 -2.716960 0
M  V30 5 H -5.300190 -2.397960 -2.959950 0
M  V30 6 C -3.285580 -2.434650 -3.736590 0
M  V30 7 H -3.600740 -2.423240 -4.776070 0
M  V30 8 C -1.927050 -2.463280 -3.417040 0
M  V30 9 H -1.180000 -2.475080 -4.204980 0
M  V30 10 C -1.516960 -2.472910 -2.085200 0
M  V30 11 H -0.460190 -2.490870 -1.845710 0
M  V30 12 C -2.470760 -2.461850 -1.057670 0
M  V30 13 C -2.069910 -2.507810 0.365720 0
M  V30 14 C -2.696810 -3.421160 1.235880 0
M  V30 15 H -3.447630 -4.092750 0.835790 0
M  V30 16 C -2.323960 -3.482470 2.570130 0
M  V30 17 H -2.787650 -4.200110 3.240240 0
M  V30 18 C -1.333980 -2.613200 3.036230 0
M  V30 19 H -1.014220 -2.623430 4.073070 0
M  V30 20 C -0.765020 -1.724290 2.135640 0
M  V30 21 C 0.207230 -0.641050 2.595880 0
M  V30 22 H 0.589080 -0.892890 3.595640 0
M  V30 23 C -0.616340 0.639300 2.665090 0
M  V30 24 C -1.183830 1.078570 3.857310 0
M  V30 25 H -0.957800 0.574220 4.791390 0
M  V30 26 C -2.058420 2.165440 3.811780 0
M  V30 27 H -2.526500 2.535010 4.719170 0
M  V30 28 C -2.312550 2.773350 2.586930 0
M  V30 29 H -2.974270 3.629100 2.509960 0
M  V30 30 C -1.673790 2.297440 1.431410 0
M  V30 31 C -1.889320 2.970480 0.126320 0
M  V30 32 C -0.807220 3.539340 -0.559360 0
M  V30 33 H 0.184960 3.477810 -0.127760 0
M  V30 34 C -1.008060 4.172190 -1.784420 0
M  V30 35 H -0.165050 4.615100 -2.306940 0
M  V30 36 C -2.289140 4.234460 -2.339750 0
M  V30 37 H -2.443370 4.719680 -3.298860 0
M  V30 38 C -3.372930 3.675170 -1.658230 0
M  V30 39 H -4.369650 3.721560 -2.086490 0
M  V30 40 C -3.177830 3.054770 -0.422050 0
M  V30 41 H -4.018490 2.615300 0.108280 0
M  V30 42 C 2.207310 0.639590 1.874570 0
M  V30 43 H 3.085160 0.315660 2.446560 0
M  V30 44 H 1.676670 1.376750 2.484350 0
M  V30 45 C 2.636400 1.309430 0.585590 0
M  V30 46 C 3.884790 1.910270 0.424570 0
M  V30 47 H 4.616430 1.866720 1.224830 0
M  V30 48 C 4.177290 2.536880 -0.785210 0
M  V30 49 H 5.146550 3.001670 -0.938370 0
M  V30 50 C 3.218590 2.545590 -1.802330 0
M  V30 51 H 3.417080 3.011760 -2.761330 0
M  V30 52 C 1.999490 1.920520 -1.569000 0
M  V30 53 H 1.207760 1.863870 -2.308790 0
M  V30 54 C 2.072130 -1.778760 1.462790 0
M  V30 55 H 1.342880 -2.563960 1.249940 0
M  V30 56 H 2.561690 -2.016620 2.418660 0
M  V30 57 C 3.078920 -1.708820 0.350220 0
M  V30 58 C 4.447800 -1.865370 0.573860 0
M  V30 59 H 4.806090 -2.033800 1.587450 0
M  V30 60 C 5.355950 -1.813190 -0.485550 0
M  V30 61 H 6.418080 -1.938690 -0.299760 0
M  V30 62 C 4.884530 -1.608680 -1.787460 0
M  V30 63 H 5.585190 -1.570770 -2.617010 0
M  V30 64 C 3.522470 -1.453650 -2.031750 0
M  V30 65 H 3.138080 -1.288940 -3.033420 0
M  V30 66 C 2.603110 -1.497350 -0.968200 0
M  V30 67 N -1.110170 -1.672570 0.830610 0
M  V30 68 N -0.845670 1.232590 1.479260 0
M  V30 69 N 1.299030 -0.503080 1.611210 0
M  V30 70 N 1.719860 1.329760 -0.395450 0
M  V30 71 O 1.304980 -1.302750 -1.196340 0
M  V30 72 O -0.945660 0.516460 -1.639920 0
M  V30 73 H -1.677230 1.138790 -1.504730 0
M  V30 END ATOM
M  V30 BEGIN BOND
M  V30 1 1 7 6
M  V30 2 1 9 8
M  V30 3 2 6 8
M  V30 4 1 6 4
M  V30 5 1 8 10
M  V30 6 1 37 36
M  V30 7 1 65 64
M  V30 8 1 5 4
M  V30 9 1 51 50
M  V30 10 2 4 2
M  V30 11 1 63 62
M  V30 12 1 36 34
M  V30 13 2 36 38
M  V30 14 1 53 52
M  V30 15 1 35 34
M  V30 16 1 39 38
M  V30 17 1 10 11
M  V30 18 2 10 12
M  V30 19 2 64 62
M  V30 20 1 64 66
M  V30 21 2 50 52
M  V30 22 1 50 48
M  V30 23 1 62 60
M  V30 24 2 34 32
M  V30 25 1 38 40
M  V30 26 1 72 73
M  V30 27 1 72 1
M  V30 28 1 52 70
M  V30 29 1 2 12
M  V30 30 1 2 3
M  V30 31 1 71 66
M  V30 32 1 71 1
M  V30 33 1 12 13
M  V30 34 2 66 57
M  V30 35 1 49 48
M  V30 36 2 48 46
M  V30 37 1 32 33
M  V30 38 1 32 31
M  V30 39 1 60 61
M  V30 40 2 60 58
M  V30 41 1 40 41
M  V30 42 2 40 31
M  V30 43 2 70 45
M  V30 44 1 31 30
M  V30 45 1 57 58
M  V30 46 1 57 54
M  V30 47 1 13 67
M  V30 48 2 13 14
M  V30 49 1 46 45
M  V30 50 1 46 47
M  V30 51 1 58 59
M  V30 52 1 45 42
M  V30 53 2 67 20
M  V30 54 1 15 14
M  V30 55 1 14 16
M  V30 56 1 55 54
M  V30 57 2 30 68
M  V30 58 1 30 28
M  V30 59 1 54 69
M  V30 60 1 54 56
M  V30 61 1 68 23
M  V30 62 1 69 42
M  V30 63 1 69 21
M  V30 64 1 42 43
M  V30 65 1 42 44
M  V30 66 1 20 21
M  V30 67 1 20 18
M  V30 68 1 29 28
M  V30 69 2 16 18
M  V30 70 1 16 17
M  V30 71 2 28 26
M  V30 72 1 21 23
M  V30 73 1 21 22
M  V30 74 2 23 24
M  V30 75 1 18 19
M  V30 76 1 26 24
M  V30 77 1 26 27
M  V30 78 1 24 25
M  V30 79 9 67 1
M  V30 80 9 68 1
M  V30 81 9 69 1
M  V30 82 9 70 1
M  V30 END BOND
M  V30 END CTAB
M  END
