
     RDKit          3D

  0  0  0  0  0  0  0  0  0  0999 V3000
M  V30 BEGIN CTAB
M  V30 COUNTS 40 42 0 0 0
M  V30 BEGIN ATOM
M  V30 1 Fe 4.087040 4.030730 4.935660 0 CHG=-1 RAD=2 VAL=4
M  V30 2 S 6.153100 3.745500 5.855900 0
M  V30 3 S 4.776500 3.517500 2.824300 0
M  V30 4 N 3.368900 3.635900 6.717200 0
M  V30 5 N 2.300500 3.458900 4.364200 0 RAD=2 VAL=2
M  V30 6 C 5.613200 4.068700 7.602600 0
M  V30 7 C 4.146700 3.632600 7.833700 0
M  V30 8 C 1.988400 3.371600 6.724600 0
M  V30 9 C 1.176600 3.209200 7.860700 0
M  V30 10 C -0.193500 2.961900 7.727000 0
M  V30 11 C -0.768400 2.866700 6.460700 0
M  V30 12 C 0.021200 3.017900 5.316300 0
M  V30 13 C 1.399000 3.274000 5.426700 0
M  V30 14 C 1.977000 3.273200 3.055600 0
M  V30 15 C 3.093100 3.651500 2.052700 0
M  V30 16 C 6.532600 3.316000 8.573600 0
M  V30 17 C 5.663000 5.584300 7.894300 0
M  V30 18 C 3.014300 2.733600 0.825500 0
M  V30 19 C 2.822000 5.113900 1.637800 0
M  V30 20 O 3.780400 3.382000 8.995800 0 CHG=-1 VAL=1
M  V30 21 O 0.878400 2.902000 2.605300 0
M  V30 22 H 1.642000 3.274800 8.833400 0
M  V30 23 H -0.804400 2.842500 8.622100 0
M  V30 24 H -1.835600 2.671700 6.351200 0
M  V30 25 H -0.404400 2.935900 4.326800 0
M  V30 26 H 6.195200 3.474200 9.604700 0
M  V30 27 H 7.565800 3.670300 8.467200 0
M  V30 28 H 6.514900 2.240300 8.367300 0
M  V30 29 H 5.327100 5.779800 8.923700 0
M  V30 30 H 6.685800 5.961300 7.773100 0
M  V30 31 H 5.011600 6.117900 7.196400 0
M  V30 32 H 2.010100 2.781400 0.388100 0
M  V30 33 H 3.755700 3.039600 0.076500 0
M  V30 34 H 3.217900 1.694500 1.106300 0
M  V30 35 H 1.817900 5.198900 1.195700 0
M  V30 36 H 2.885200 5.765800 2.513700 0
M  V30 37 H 3.566300 5.444900 0.903300 0
M  V30 38 N 3.842400 6.094300 4.891500 0
M  V30 39 N 4.583700 6.951300 4.490000 0 CHG=1 VAL=4
M  V30 40 N 5.260300 7.825600 4.116700 0 CHG=-1 VAL=2
M  V30 END ATOM
M  V30 BEGIN BOND
M  V30 1 1 33 18
M  V30 2 1 32 18
M  V30 3 1 18 34
M  V30 4 1 18 15
M  V30 5 1 37 19
M  V30 6 1 35 19
M  V30 7 1 19 15
M  V30 8 1 19 36
M  V30 9 1 15 3
M  V30 10 1 15 14
M  V30 11 2 21 14
M  V30 12 1 14 5
M  V30 13 2 40 39
M  V30 14 1 25 12
M  V30 15 1 5 13
M  V30 16 2 39 38
M  V30 17 2 12 13
M  V30 18 1 12 11
M  V30 19 1 13 8
M  V30 20 1 2 6
M  V30 21 1 24 11
M  V30 22 2 11 10
M  V30 23 1 4 8
M  V30 24 2 4 7 CFG=2
M  V30 25 2 8 9
M  V30 26 1 31 17
M  V30 27 1 6 7
M  V30 28 1 6 17
M  V30 29 1 6 16
M  V30 30 1 10 9
M  V30 31 1 10 23
M  V30 32 1 30 17
M  V30 33 1 7 20
M  V30 34 1 9 22
M  V30 35 1 17 29
M  V30 36 1 28 16
M  V30 37 1 27 16
M  V30 38 1 16 26
M  V30 39 1 1 38
M  V30 40 1 1 3
M  V30 41 9 4 1
M  V30 42 1 2 1
M  V30 END BOND
M  V30 END CTAB
M  END
