
     RDKit          3D

  0  0  0  0  0  0  0  0  0  0999 V3000
M  V30 BEGIN CTAB
M  V30 COUNTS 39 41 0 0 0
M  V30 BEGIN ATOM
M  V30 1 Fe 0.000000 -0.847600 0.087400 0 VAL=4
M  V30 2 S -1.695500 -2.204600 -0.691600 0
M  V30 3 S 1.695800 -2.204300 -0.692300 0
M  V30 4 N -1.299000 0.633300 -0.099900 0
M  V30 5 N 1.298900 0.633300 -0.099900 0 RAD=2 VAL=2
M  V30 6 C -3.039400 -1.087900 -0.056300 0
M  V30 7 C -2.636600 0.403800 -0.171200 0 CHG=-1 VAL=3
M  V30 8 C -0.716300 1.909800 -0.083900 0
M  V30 9 C -1.400600 3.138800 -0.062400 0
M  V30 10 C -0.697200 4.348000 -0.035400 0
M  V30 11 C 0.696800 4.348100 -0.035600 0
M  V30 12 C 1.400300 3.138900 -0.062800 0
M  V30 13 C 0.716200 1.909900 -0.083900 0 RAD=2 VAL=3
M  V30 14 C 2.636600 0.403900 -0.171100 0
M  V30 15 C 3.039500 -1.087800 -0.056300 0
M  V30 16 C -4.333700 -1.330700 -0.843600 0
M  V30 17 C -3.269400 -1.364600 1.447100 0
M  V30 18 C 4.334000 -1.330400 -0.843200 0
M  V30 19 C 3.269200 -1.364900 1.447100 0
M  V30 20 O -3.538400 1.259700 -0.250900 0 CHG=-1 VAL=1
M  V30 21 O 3.538400 1.259900 -0.250400 0
M  V30 22 H -2.480900 3.116800 -0.072100 0
M  V30 23 H -1.250500 5.287800 -0.017200 0
M  V30 24 H 1.250100 5.287900 -0.017600 0
M  V30 25 H 2.480700 3.117000 -0.072700 0
M  V30 26 H -5.121700 -0.656400 -0.487000 0
M  V30 27 H -4.659000 -2.371900 -0.721300 0
M  V30 28 H -4.178800 -1.141300 -1.911600 0
M  V30 29 H -4.015100 -0.661500 1.851300 0
M  V30 30 H -3.637900 -2.389700 1.586500 0
M  V30 31 H -2.320900 -1.258500 1.985500 0
M  V30 32 H 5.121900 -0.656100 -0.486300 0
M  V30 33 H 4.659300 -2.371500 -0.721100 0
M  V30 34 H 4.179500 -1.140700 -1.911200 0
M  V30 35 H 4.014800 -0.661900 1.851500 0
M  V30 36 H 2.320500 -1.258800 1.985400 0
M  V30 37 H 3.637600 -2.389900 1.586300 0
M  V30 38 O 0.000100 -1.047300 2.023400 0
M  V30 39 H -0.000300 -0.125400 2.334000 0
M  V30 END ATOM
M  V30 BEGIN BOND
M  V30 1 1 1 38
M  V30 2 1 2 6
M  V30 3 1 2 1
M  V30 4 1 3 15
M  V30 5 1 3 1
M  V30 6 2 4 8
M  V30 7 1 5 13
M  V30 8 1 6 17
M  V30 9 1 7 20
M  V30 10 1 7 4
M  V30 11 1 7 6
M  V30 12 1 8 9
M  V30 13 2 9 10
M  V30 14 1 10 23
M  V30 15 1 11 10
M  V30 16 1 11 24
M  V30 17 2 12 11
M  V30 18 1 13 8
M  V30 19 1 13 12
M  V30 20 1 14 5
M  V30 21 1 14 15
M  V30 22 1 15 19
M  V30 23 1 16 27
M  V30 24 1 16 26
M  V30 25 1 16 6
M  V30 26 1 17 30
M  V30 27 1 17 29
M  V30 28 1 17 31
M  V30 29 1 18 33
M  V30 30 1 18 32
M  V30 31 1 18 15
M  V30 32 1 19 37
M  V30 33 1 19 35
M  V30 34 1 19 36
M  V30 35 2 21 14
M  V30 36 1 22 9
M  V30 37 1 25 12
M  V30 38 1 28 16
M  V30 39 1 34 18
M  V30 40 1 38 39
M  V30 41 9 4 1
M  V30 END BOND
M  V30 END CTAB
M  END
