
     RDKit          3D

  0  0  0  0  0  0  0  0  0  0999 V3000
M  V30 BEGIN CTAB
M  V30 COUNTS 38 40 0 0 0
M  V30 BEGIN ATOM
M  V30 1 Fe 0.000000 -0.832800 0.066500 0 VAL=4
M  V30 2 S -1.697700 -2.183300 -0.728800 0
M  V30 3 S 1.697700 -2.183000 -0.729400 0
M  V30 4 N -1.298800 0.643100 -0.090200 0
M  V30 5 N 1.298700 0.643200 -0.090200 0 RAD=2 VAL=2
M  V30 6 C -3.029400 -1.083800 -0.038400 0
M  V30 7 C -2.635500 0.410900 -0.150200 0 CHG=-1 VAL=3
M  V30 8 C -0.715700 1.919200 -0.069800 0
M  V30 9 C -1.400500 3.147200 -0.051800 0
M  V30 10 C -0.697000 4.356700 -0.028100 0
M  V30 11 C 0.696800 4.356700 -0.028100 0
M  V30 12 C 1.400300 3.147300 -0.051700 0
M  V30 13 C 0.715600 1.919300 -0.069700 0 RAD=2 VAL=3
M  V30 14 C 2.635500 0.411000 -0.149700 0
M  V30 15 C 3.029400 -1.083700 -0.038600 0
M  V30 16 C -4.346100 -1.326200 -0.786500 0
M  V30 17 C -3.209700 -1.379100 1.468700 0
M  V30 18 C 4.346100 -1.325800 -0.786900 0
M  V30 19 C 3.209900 -1.379600 1.468300 0
M  V30 20 O -3.541500 1.263200 -0.216900 0 CHG=-1 VAL=1
M  V30 21 O 3.541500 1.263300 -0.215800 0
M  V30 22 H -2.480800 3.125300 -0.060000 0
M  V30 23 H -1.250500 5.296500 -0.012400 0
M  V30 24 H 1.250100 5.296500 -0.012300 0
M  V30 25 H 2.480600 3.125500 -0.059700 0
M  V30 26 H -5.125700 -0.659900 -0.398200 0
M  V30 27 H -4.662000 -2.370400 -0.665100 0
M  V30 28 H -4.226500 -1.124100 -1.856600 0
M  V30 29 H -3.946600 -0.685800 1.903900 0
M  V30 30 H -3.567300 -2.408000 1.607700 0
M  V30 31 H -2.249700 -1.270600 1.982700 0
M  V30 32 H 5.125700 -0.659500 -0.398500 0
M  V30 33 H 4.662100 -2.369900 -0.665900 0
M  V30 34 H 4.226300 -1.123300 -1.856900 0
M  V30 35 H 3.946800 -0.686500 1.903700 0
M  V30 36 H 2.250000 -1.271300 1.982500 0
M  V30 37 H 3.567500 -2.408600 1.606900 0
M  V30 38 F 0.000200 -1.116600 1.911100 0
M  V30 END ATOM
M  V30 BEGIN BOND
M  V30 1 1 1 38
M  V30 2 1 2 6
M  V30 3 1 2 1
M  V30 4 1 3 15
M  V30 5 1 3 1
M  V30 6 2 4 8
M  V30 7 1 5 13
M  V30 8 1 6 17
M  V30 9 1 7 20
M  V30 10 1 7 4
M  V30 11 1 7 6
M  V30 12 1 8 13
M  V30 13 1 8 9
M  V30 14 2 9 10
M  V30 15 1 10 11
M  V30 16 1 10 23
M  V30 17 1 11 24
M  V30 18 2 12 11
M  V30 19 1 13 12
M  V30 20 1 14 5
M  V30 21 1 14 15
M  V30 22 1 15 19
M  V30 23 1 16 27
M  V30 24 1 16 26
M  V30 25 1 16 6
M  V30 26 1 17 30
M  V30 27 1 17 29
M  V30 28 1 17 31
M  V30 29 1 18 33
M  V30 30 1 18 32
M  V30 31 1 18 15
M  V30 32 1 19 37
M  V30 33 1 19 35
M  V30 34 1 19 36
M  V30 35 2 21 14
M  V30 36 1 22 9
M  V30 37 1 25 12
M  V30 38 1 28 16
M  V30 39 1 34 18
M  V30 40 9 4 1
M  V30 END BOND
M  V30 END CTAB
M  END
