
     RDKit          3D

  0  0  0  0  0  0  0  0  0  0999 V3000
M  V30 BEGIN CTAB
M  V30 COUNTS 48 53 0 0 0
M  V30 BEGIN ATOM
M  V30 1 Fe 0.113820 -0.385720 0.140920 0 VAL=6
M  V30 2 S 1.659070 -0.410820 -1.570730 0
M  V30 3 S -1.422210 -1.059280 -1.439830 0
M  V30 4 N 1.418330 0.291400 1.480900 0
M  V30 5 N -1.193100 -0.290770 1.634760 0
M  V30 6 C 3.235710 -0.623910 -0.845260 0
M  V30 7 C 4.273970 -1.041050 -1.714250 0
M  V30 8 C 5.574940 -1.223280 -1.275740 0
M  V30 9 C 5.916480 -0.990770 0.067370 0
M  V30 10 C 4.929040 -0.567810 0.935710 0
M  V30 11 C 3.587180 -0.378290 0.517480 0
M  V30 12 C 2.694170 0.114460 1.539950 0
M  V30 13 C -3.024520 -1.085270 -0.748250 0
M  V30 14 C -4.084020 -1.383750 -1.645240 0
M  V30 15 C -5.404250 -1.442100 -1.237390 0
M  V30 16 C -5.751080 -1.201900 0.104810 0
M  V30 17 C -4.745060 -0.909260 1.002750 0
M  V30 18 C -3.380600 -0.837130 0.614710 0
M  V30 19 C -2.460800 -0.526890 1.685650 0
M  V30 20 C 0.709200 0.804150 2.647870 0
M  V30 21 C -0.466990 -0.135900 2.896590 0
M  V30 22 N -0.314490 1.707620 -0.301400 0
M  V30 23 C 0.691430 2.584760 -0.462810 0
M  V30 24 C 0.479920 3.937420 -0.716530 0
M  V30 25 C -0.829360 4.407960 -0.812780 0
M  V30 26 C -1.875260 3.500890 -0.648800 0
M  V30 27 C -1.574370 2.164480 -0.395850 0
M  V30 28 H -2.929780 -0.490500 2.675940 0
M  V30 29 H 3.189450 0.377250 2.482120 0
M  V30 30 H -2.359160 1.430510 -0.273070 0
M  V30 31 H 4.022530 -1.231790 -2.753290 0
M  V30 32 H 6.334300 -1.554550 -1.979800 0
M  V30 33 H 6.934390 -1.136830 0.415580 0
M  V30 34 H 5.177560 -0.374370 1.977480 0
M  V30 35 H -3.830710 -1.573850 -2.683970 0
M  V30 36 H -6.177610 -1.678390 -1.964120 0
M  V30 37 H -6.786160 -1.250020 0.428800 0
M  V30 38 H -4.993950 -0.726730 2.046430 0
M  V30 39 H 0.333820 1.808140 2.414120 0
M  V30 40 H 1.357940 0.868210 3.531660 0
M  V30 41 H -1.114910 0.238940 3.700150 0
M  V30 42 H -0.079740 -1.123490 3.173090 0
M  V30 43 H 1.688820 2.168340 -0.397660 0
M  V30 44 H 1.330750 4.599280 -0.842460 0
M  V30 45 H -1.029560 5.456320 -1.015630 0
M  V30 46 H -2.912470 3.812100 -0.720010 0
M  V30 47 O 0.527690 -2.049570 0.701050 0
M  V30 48 H 0.524370 -2.630250 -0.078490 0
M  V30 END ATOM
M  V30 BEGIN BOND
M  V30 1 1 31 7
M  V30 2 1 35 14
M  V30 3 1 32 8
M  V30 4 1 36 15
M  V30 5 2 7 8
M  V30 6 1 7 6
M  V30 7 2 14 15
M  V30 8 1 14 13
M  V30 9 1 2 6
M  V30 10 1 2 1
M  V30 11 1 3 13
M  V30 12 1 3 1
M  V30 13 1 8 9
M  V30 14 1 15 16
M  V30 15 1 45 25
M  V30 16 2 6 11
M  V30 17 1 44 24
M  V30 18 2 25 24
M  V30 19 1 25 26
M  V30 20 2 13 18
M  V30 21 1 46 26
M  V30 22 1 24 23
M  V30 23 2 26 27
M  V30 24 1 23 43
M  V30 25 2 23 22
M  V30 26 1 27 22
M  V30 27 1 27 30
M  V30 28 1 48 47
M  V30 29 1 9 33
M  V30 30 2 9 10
M  V30 31 1 16 37
M  V30 32 2 16 17
M  V30 33 1 1 47
M  V30 34 1 11 10
M  V30 35 1 11 12
M  V30 36 1 18 17
M  V30 37 1 18 19
M  V30 38 1 10 34
M  V30 39 1 17 38
M  V30 40 2 4 12
M  V30 41 1 4 20
M  V30 42 1 12 29
M  V30 43 2 5 19
M  V30 44 1 5 21
M  V30 45 1 19 28
M  V30 46 1 39 20
M  V30 47 1 20 21
M  V30 48 1 20 40
M  V30 49 1 21 42
M  V30 50 1 21 41
M  V30 51 9 4 1
M  V30 52 9 5 1
M  V30 53 9 22 1
M  V30 END BOND
M  V30 END CTAB
M  END
