
     RDKit          3D

  0  0  0  0  0  0  0  0  0  0999 V3000
M  V30 BEGIN CTAB
M  V30 COUNTS 47 52 0 0 0
M  V30 BEGIN ATOM
M  V30 1 Fe 0.120690 -0.548050 0.027720 0 VAL=6
M  V30 2 S 1.611040 -0.043670 -1.616660 0
M  V30 3 S -1.445480 -0.712380 -1.621080 0
M  V30 4 N 1.412920 0.042810 1.484700 0
M  V30 5 N -1.219630 -0.651610 1.527640 0
M  V30 6 C 3.228430 -0.250200 -0.965200 0
M  V30 7 C 4.255000 -0.425910 -1.918930 0
M  V30 8 C 5.584510 -0.565460 -1.546930 0
M  V30 9 C 5.955320 -0.531170 -0.194550 0
M  V30 10 C 4.970460 -0.348580 0.759230 0
M  V30 11 C 3.606280 -0.210800 0.408270 0
M  V30 12 C 2.699730 0.006760 1.512150 0
M  V30 13 C -3.057710 -0.822510 -0.946830 0
M  V30 14 C -4.108480 -0.875500 -1.894170 0
M  V30 15 C -5.437450 -0.975860 -1.514420 0
M  V30 16 C -5.792180 -1.025370 -0.156550 0
M  V30 17 C -4.788040 -0.972010 0.791000 0
M  V30 18 C -3.420220 -0.867810 0.432360 0
M  V30 19 C -2.498310 -0.809400 1.543900 0
M  V30 20 C 0.668530 0.309920 2.715480 0
M  V30 21 C -0.486430 -0.687310 2.799710 0
M  V30 22 N -0.416140 1.965520 0.162430 0
M  V30 23 C 0.579900 2.855470 0.059440 0
M  V30 24 C 0.362170 4.224030 -0.095070 0
M  V30 25 C -0.952740 4.687580 -0.152280 0
M  V30 26 C -1.994010 3.764310 -0.051990 0
M  V30 27 C -1.676440 2.415240 0.103230 0
M  V30 28 H -2.973970 -0.907860 2.526220 0
M  V30 29 H 3.187670 0.157860 2.482020 0
M  V30 30 H -2.453110 1.660820 0.171720 0
M  V30 31 H 3.981440 -0.464560 -2.968850 0
M  V30 32 H 6.340420 -0.709130 -2.314620 0
M  V30 33 H 6.993950 -0.646090 0.099450 0
M  V30 34 H 5.240640 -0.316780 1.812610 0
M  V30 35 H -3.850180 -0.842030 -2.948230 0
M  V30 36 H -6.208290 -1.018510 -2.279570 0
M  V30 37 H -6.832140 -1.106670 0.143680 0
M  V30 38 H -5.043730 -1.011740 1.847750 0
M  V30 39 H 0.266560 1.327170 2.651930 0
M  V30 40 H 1.310220 0.235890 3.603150 0
M  V30 41 H -1.141050 -0.451940 3.648770 0
M  V30 42 H -0.084550 -1.699240 2.912170 0
M  V30 43 H 1.582320 2.439370 0.088140 0
M  V30 44 H 1.205110 4.903220 -0.176620 0
M  V30 45 H -1.161630 5.746410 -0.278190 0
M  V30 46 H -3.032800 4.076040 -0.099050 0
M  V30 47 Cl 0.720940 -2.817390 0.459420 0
M  V30 END ATOM
M  V30 BEGIN BOND
M  V30 1 1 31 7
M  V30 2 1 35 14
M  V30 3 1 32 8
M  V30 4 1 36 15
M  V30 5 2 7 8
M  V30 6 1 7 6
M  V30 7 1 14 15
M  V30 8 2 14 13
M  V30 9 1 3 13
M  V30 10 1 3 1
M  V30 11 1 2 6
M  V30 12 1 2 1
M  V30 13 1 8 9
M  V30 14 2 15 16
M  V30 15 2 6 11
M  V30 16 1 13 18
M  V30 17 1 45 25
M  V30 18 1 9 33
M  V30 19 2 9 10
M  V30 20 1 44 24
M  V30 21 1 16 37
M  V30 22 1 16 17
M  V30 23 2 25 24
M  V30 24 1 25 26
M  V30 25 1 46 26
M  V30 26 1 24 23
M  V30 27 2 26 27
M  V30 28 1 1 47
M  V30 29 1 23 43
M  V30 30 2 23 22
M  V30 31 1 27 22
M  V30 32 1 27 30
M  V30 33 1 11 10
M  V30 34 1 11 12
M  V30 35 2 18 17
M  V30 36 1 18 19
M  V30 37 1 10 34
M  V30 38 1 17 38
M  V30 39 2 4 12
M  V30 40 1 4 20
M  V30 41 1 12 29
M  V30 42 2 5 19
M  V30 43 1 5 21
M  V30 44 1 19 28
M  V30 45 1 39 20
M  V30 46 1 20 21
M  V30 47 1 20 40
M  V30 48 1 21 42
M  V30 49 1 21 41
M  V30 50 9 4 1
M  V30 51 9 5 1
M  V30 52 9 22 1
M  V30 END BOND
M  V30 END CTAB
M  END
