
     RDKit          3D

  0  0  0  0  0  0  0  0  0  0999 V3000
M  V30 BEGIN CTAB
M  V30 COUNTS 47 52 0 0 0
M  V30 BEGIN ATOM
M  V30 1 Fe 0.068630 -0.284300 -0.022440 0 VAL=6
M  V30 2 S 1.540290 0.298490 -1.646810 0
M  V30 3 S -1.483800 -0.452190 -1.672920 0
M  V30 4 N 1.354370 0.239940 1.452540 0
M  V30 5 N -1.253000 -0.522480 1.473370 0
M  V30 6 C 3.166460 0.106940 -1.013030 0
M  V30 7 C 4.191240 -0.004220 -1.977770 0
M  V30 8 C 5.525720 -0.125240 -1.617040 0
M  V30 9 C 5.902590 -0.135200 -0.265860 0
M  V30 10 C 4.918920 -0.016400 0.698980 0
M  V30 11 C 3.549740 0.099500 0.359190 0
M  V30 12 C 2.642790 0.245590 1.473100 0
M  V30 13 C -3.088430 -0.668220 -1.005920 0
M  V30 14 C -4.136240 -0.733050 -1.955250 0
M  V30 15 C -5.458310 -0.912380 -1.580130 0
M  V30 16 C -5.807710 -1.034460 -0.225510 0
M  V30 17 C -4.805800 -0.972440 0.723900 0
M  V30 18 C -3.445170 -0.788340 0.369960 0
M  V30 19 C -2.524780 -0.733750 1.482340 0
M  V30 20 C 0.611080 0.443540 2.697250 0
M  V30 21 C -0.524410 -0.576660 2.749140 0
M  V30 22 N -0.534390 2.171440 0.231340 0
M  V30 23 C 0.432080 3.096980 0.164400 0
M  V30 24 C 0.168560 4.463620 0.082660 0
M  V30 25 C -1.161210 4.886170 0.062160 0
M  V30 26 C -2.171390 3.925710 0.124580 0
M  V30 27 C -1.809420 2.581570 0.207190 0
M  V30 28 H -2.994080 -0.891520 2.459700 0
M  V30 29 H 3.129540 0.371460 2.446780 0
M  V30 30 H -2.560050 1.798980 0.243590 0
M  V30 31 H 3.913020 -0.007370 -3.027130 0
M  V30 32 H 6.281110 -0.219080 -2.392850 0
M  V30 33 H 6.945390 -0.235250 0.018620 0
M  V30 34 H 5.193620 -0.020820 1.751590 0
M  V30 35 H -3.881310 -0.644750 -3.006960 0
M  V30 36 H -6.227630 -0.960900 -2.346430 0
M  V30 37 H -6.842040 -1.178090 0.070770 0
M  V30 38 H -5.057450 -1.068710 1.777950 0
M  V30 39 H 0.191110 1.455200 2.675810 0
M  V30 40 H 1.259490 0.346830 3.577550 0
M  V30 41 H -1.188250 -0.373810 3.599210 0
M  V30 42 H -0.105510 -1.583720 2.840770 0
M  V30 43 H 1.447290 2.712090 0.161650 0
M  V30 44 H 0.988180 5.173290 0.027960 0
M  V30 45 H -1.405320 5.942660 -0.007030 0
M  V30 46 H -3.220010 4.205590 0.103340 0
M  V30 47 Br 0.783370 -2.773960 0.322780 0
M  V30 END ATOM
M  V30 BEGIN BOND
M  V30 1 1 31 7
M  V30 2 1 35 14
M  V30 3 1 32 8
M  V30 4 1 36 15
M  V30 5 2 7 8
M  V30 6 1 7 6
M  V30 7 1 14 15
M  V30 8 2 14 13
M  V30 9 1 3 13
M  V30 10 1 3 1
M  V30 11 1 2 6
M  V30 12 1 2 1
M  V30 13 1 8 9
M  V30 14 2 15 16
M  V30 15 2 6 11
M  V30 16 1 13 18
M  V30 17 1 9 33
M  V30 18 2 9 10
M  V30 19 1 16 37
M  V30 20 1 16 17
M  V30 21 1 1 47
M  V30 22 1 45 25
M  V30 23 1 44 24
M  V30 24 2 25 24
M  V30 25 1 25 26
M  V30 26 1 24 23
M  V30 27 1 46 26
M  V30 28 2 26 27
M  V30 29 1 43 23
M  V30 30 2 23 22
M  V30 31 1 27 22
M  V30 32 1 27 30
M  V30 33 1 11 10
M  V30 34 1 11 12
M  V30 35 2 18 17
M  V30 36 1 18 19
M  V30 37 1 10 34
M  V30 38 1 17 38
M  V30 39 2 4 12
M  V30 40 1 4 20
M  V30 41 1 12 29
M  V30 42 2 5 19
M  V30 43 1 5 21
M  V30 44 1 19 28
M  V30 45 1 39 20
M  V30 46 1 20 21
M  V30 47 1 20 40
M  V30 48 1 21 42
M  V30 49 1 21 41
M  V30 50 9 4 1
M  V30 51 9 5 1
M  V30 52 9 22 1
M  V30 END BOND
M  V30 END CTAB
M  END
