
     RDKit          3D

  0  0  0  0  0  0  0  0  0  0999 V3000
M  V30 BEGIN CTAB
M  V30 COUNTS 100 106 0 0 0
M  V30 BEGIN ATOM
M  V30 1 Fe 0.431470 -0.421630 -0.327730 0 CHG=-1 RAD=2 VAL=6
M  V30 2 C -3.139900 -1.023300 2.737200 0
M  V30 3 H -4.069200 -1.120800 2.163800 0
M  V30 4 H -2.408700 -0.527800 2.090300 0
M  V30 5 H -3.337300 -0.360900 3.588300 0
M  V30 6 C -1.378900 -2.212800 4.096800 0
M  V30 7 H -1.620500 -1.652100 5.007400 0
M  V30 8 H -0.605800 -1.647100 3.569300 0
M  V30 9 H -0.956600 -3.179200 4.397400 0
M  V30 10 C -3.744700 -3.054000 4.095400 0
M  V30 11 H -3.421100 -4.029300 4.480100 0
M  V30 12 H -4.665700 -3.203500 3.518200 0
M  V30 13 H -3.989300 -2.420100 4.955000 0
M  V30 14 C -2.647000 -2.394800 3.239200 0
M  V30 15 C -2.375200 -3.343700 2.046600 0
M  V30 16 H -2.071800 -4.329600 2.430500 0
M  V30 17 H -3.315100 -3.485900 1.493800 0
M  V30 18 C -1.259100 -3.159900 -0.171200 0
M  V30 19 C -1.929200 -4.282800 -0.723500 0
M  V30 20 C -1.854400 -4.504100 -2.084500 0
M  V30 21 C -1.132000 -3.623500 -2.903500 0
M  V30 22 H -1.095700 -3.748600 -3.980000 0
M  V30 23 C -0.467600 -2.569800 -2.294600 0
M  V30 24 C 0.312600 -1.547100 -3.088900 0
M  V30 25 H 1.377700 -1.776000 -3.007900 0
M  V30 26 H 0.021300 -1.581100 -4.148300 0
M  V30 27 C 1.139400 0.753000 -3.021400 0
M  V30 28 H 0.854000 1.151600 -4.005100 0
M  V30 29 H 2.077400 0.203000 -3.133800 0
M  V30 30 C 1.405300 1.878000 -2.053400 0
M  V30 31 C 1.780300 3.133000 -2.497200 0
M  V30 32 H 1.853500 3.340700 -3.558800 0
M  V30 33 C 2.047500 4.115900 -1.535100 0
M  V30 34 C 1.916400 3.825500 -0.193200 0
M  V30 35 C 1.517100 2.522000 0.194600 0
M  V30 36 C 1.333700 3.121300 2.591800 0
M  V30 37 H 0.695800 3.977300 2.329000 0
M  V30 38 H 2.350600 3.509900 2.759900 0
M  V30 39 C 0.812300 2.493800 3.904600 0
M  V30 40 C -0.601600 1.913400 3.703300 0
M  V30 41 H -1.294400 2.683700 3.342000 0
M  V30 42 H -0.991900 1.530100 4.653700 0
M  V30 43 H -0.608900 1.088000 2.985500 0
M  V30 44 C 0.757300 3.617300 4.956600 0
M  V30 45 H 1.744500 4.071300 5.107700 0
M  V30 46 H 0.420400 3.222200 5.921700 0
M  V30 47 H 0.060400 4.410100 4.657100 0
M  V30 48 C 1.774000 1.393400 4.393800 0
M  V30 49 H 1.870100 0.574900 3.675700 0
M  V30 50 H 1.412500 0.963000 5.335000 0
M  V30 51 H 2.777500 1.798700 4.569700 0
M  V30 52 C -1.290700 0.274400 -2.644700 0
M  V30 53 H -1.891300 -0.610200 -2.856300 0
M  V30 54 H -1.397500 0.943200 -3.505500 0
M  V30 55 C -1.894000 0.900900 -1.327000 0
M  V30 56 C -3.396800 0.537500 -1.352600 0
M  V30 57 C -3.808800 -0.658900 -0.751600 0
M  V30 58 H -3.075600 -1.253400 -0.223300 0
M  V30 59 C -5.141600 -1.064100 -0.812100 0
M  V30 60 H -5.442500 -1.993300 -0.333700 0
M  V30 61 C -6.085400 -0.281700 -1.482400 0
M  V30 62 H -7.125000 -0.594900 -1.529100 0
M  V30 63 C -5.681500 0.909400 -2.087300 0
M  V30 64 H -6.406900 1.530500 -2.606500 0
M  V30 65 C -4.346400 1.317100 -2.022200 0
M  V30 66 H -4.051900 2.256000 -2.480600 0
M  V30 67 C -1.738900 2.424900 -1.171700 0
M  V30 68 C -1.641100 3.320200 -2.240700 0
M  V30 69 H -1.605400 2.957800 -3.263700 0
M  V30 70 C -1.579500 4.699700 -2.017500 0
M  V30 71 H -1.494300 5.375600 -2.864600 0
M  V30 72 C -1.619400 5.204300 -0.719300 0
M  V30 73 H -1.569500 6.276000 -0.545900 0
M  V30 74 C -1.721800 4.317300 0.356500 0
M  V30 75 H -1.754100 4.695800 1.375400 0
M  V30 76 C -1.781400 2.944700 0.131500 0
M  V30 77 H -1.845800 2.253600 0.963100 0
M  V30 78 N -1.369100 -2.821700 1.134500 0
M  V30 79 H -0.822600 -2.018600 1.434700 0
M  V30 80 N -0.500700 -2.358100 -0.963900 0
M  V30 81 N 0.119600 -0.190100 -2.518700 0
M  V30 82 N 1.285600 1.568200 -0.746600 0
M  V30 83 N 1.319300 2.182700 1.485400 0
M  V30 84 H 1.214900 1.192500 1.686200 0
M  V30 85 O -1.288100 0.277900 -0.227200 0
M  V30 86 O 2.241000 -1.274700 -0.888300 0
M  V30 87 S 3.613800 -0.620300 -0.696900 0 CHG=2 VAL=4
M  V30 88 C 4.661100 -2.154800 -0.599700 0
M  V30 89 O 3.744900 0.059100 0.597200 0 RAD=2 VAL=1
M  V30 90 F 5.943200 -1.814800 -0.428200 0
M  V30 91 F 4.545500 -2.851300 -1.741300 0
M  V30 92 F 4.273700 -2.928800 0.417400 0
M  V30 93 H 2.349800 5.112800 -1.843400 0
M  V30 94 H 2.117300 4.575000 0.561400 0
M  V30 95 H -2.370700 -5.354600 -2.521100 0
M  V30 96 H -2.487900 -4.949700 -0.078500 0
M  V30 97 O 4.066800 0.078900 -1.908600 0 CHG=-1 VAL=1
M  V30 98 N 0.742300 -0.782800 1.586200 0
M  V30 99 N 1.620200 -1.486100 2.067700 0 CHG=1 VAL=4
M  V30 100 N 2.407900 -2.140300 2.580400 0 CHG=-1 VAL=2
M  V30 END ATOM
M  V30 BEGIN BOND
M  V30 1 1 26 24
M  V30 2 1 28 27
M  V30 3 1 22 21
M  V30 4 1 32 31
M  V30 5 1 54 52
M  V30 6 1 69 68
M  V30 7 1 29 27
M  V30 8 1 24 25
M  V30 9 1 24 81
M  V30 10 1 24 23
M  V30 11 1 27 81
M  V30 12 1 27 30
M  V30 13 2 21 23
M  V30 14 1 21 20
M  V30 15 1 71 70
M  V30 16 1 53 52
M  V30 17 1 52 81
M  V30 18 1 52 55
M  V30 19 1 64 63
M  V30 20 1 95 20
M  V30 21 2 31 30
M  V30 22 1 31 33
M  V30 23 1 66 65
M  V30 24 1 23 80
M  V30 25 2 68 70
M  V30 26 1 68 67
M  V30 27 2 63 65
M  V30 28 1 63 61
M  V30 29 2 20 19
M  V30 30 1 30 82
M  V30 31 1 65 56
M  V30 32 1 70 72
M  V30 33 1 97 87
M  V30 34 1 93 33
M  V30 35 1 91 88
M  V30 36 2 33 34
M  V30 37 1 62 61
M  V30 38 2 61 59
M  V30 39 1 56 55
M  V30 40 2 56 57
M  V30 41 1 55 67
M  V30 42 1 55 85
M  V30 43 2 67 76
M  V30 44 2 80 18
M  V30 45 1 86 87
M  V30 46 1 59 57
M  V30 47 1 59 60
M  V30 48 1 57 58
M  V30 49 2 82 35
M  V30 50 1 19 18
M  V30 51 1 19 96
M  V30 52 1 72 73
M  V30 53 2 72 74
M  V30 54 1 87 88
M  V30 55 1 87 89
M  V30 56 1 88 90
M  V30 57 1 88 92
M  V30 58 1 34 35
M  V30 59 1 34 94
M  V30 60 1 18 78
M  V30 61 1 76 74
M  V30 62 1 76 77
M  V30 63 1 35 83
M  V30 64 1 74 75
M  V30 65 1 78 79
M  V30 66 1 78 15
M  V30 67 1 83 84
M  V30 68 1 83 36
M  V30 69 1 17 15
M  V30 70 2 98 99
M  V30 71 1 15 16
M  V30 72 1 15 14
M  V30 73 2 99 100
M  V30 74 1 4 2
M  V30 75 1 3 2
M  V30 76 1 37 36
M  V30 77 1 36 38
M  V30 78 1 36 39
M  V30 79 1 2 14
M  V30 80 1 2 5
M  V30 81 1 43 40
M  V30 82 1 14 10
M  V30 83 1 14 6
M  V30 84 1 41 40
M  V30 85 1 12 10
M  V30 86 1 8 6
M  V30 87 1 49 48
M  V30 88 1 40 39
M  V30 89 1 40 42
M  V30 90 1 39 48
M  V30 91 1 39 44
M  V30 92 1 10 11
M  V30 93 1 10 13
M  V30 94 1 6 9
M  V30 95 1 6 7
M  V30 96 1 48 51
M  V30 97 1 48 50
M  V30 98 1 47 44
M  V30 99 1 44 45
M  V30 100 1 44 46
M  V30 101 1 1 85
M  V30 102 1 1 98
M  V30 103 9 80 1
M  V30 104 9 81 1
M  V30 105 9 82 1
M  V30 106 1 86 1
M  V30 END BOND
M  V30 END CTAB
M  END
