
     RDKit          3D

  0  0  0  0  0  0  0  0  0  0999 V3000
M  V30 BEGIN CTAB
M  V30 COUNTS 72 81 0 0 0
M  V30 BEGIN ATOM
M  V30 1 Fe 0.095260 -0.101780 -0.278510 0 CHG=1 VAL=6
M  V30 2 C -3.821730 -2.331410 -1.486820 0
M  V30 3 H -4.548400 -2.404710 -0.681930 0
M  V30 4 C -4.255350 -2.167330 -2.800420 0
M  V30 5 H -5.318930 -2.125670 -3.016050 0
M  V30 6 C -3.322810 -2.055680 -3.835650 0
M  V30 7 H -3.661710 -1.932680 -4.860230 0
M  V30 8 C -1.957070 -2.105390 -3.551220 0
M  V30 9 H -1.228510 -2.025590 -4.352490 0
M  V30 10 C -1.517030 -2.256980 -2.237580 0
M  V30 11 H -0.455110 -2.298440 -2.025290 0
M  V30 12 C -2.447460 -2.366100 -1.194150 0
M  V30 13 C -2.014750 -2.549430 0.208550 0
M  V30 14 C -2.609040 -3.549670 1.002110 0
M  V30 15 H -3.358360 -4.193650 0.556460 0
M  V30 16 C -2.208590 -3.725010 2.318280 0
M  V30 17 H -2.647150 -4.509110 2.928100 0
M  V30 18 C -1.227460 -2.880970 2.846960 0
M  V30 19 H -0.892610 -2.976280 3.874580 0
M  V30 20 C -0.691130 -1.902930 2.022780 0
M  V30 21 C 0.257260 -0.833050 2.559320 0
M  V30 22 H 0.640850 -1.139730 3.542620 0
M  V30 23 C -0.600280 0.419480 2.699600 0
M  V30 24 C -1.199530 0.764660 3.905000 0
M  V30 25 H -0.967870 0.214930 4.811660 0
M  V30 26 C -2.119050 1.816300 3.905280 0
M  V30 27 H -2.616080 2.113020 4.824000 0
M  V30 28 C -2.379860 2.482810 2.714070 0
M  V30 29 H -3.075610 3.313620 2.675280 0
M  V30 30 C -1.703840 2.108510 1.540310 0
M  V30 31 C -1.920670 2.864040 0.283960 0
M  V30 32 C -0.852070 3.533050 -0.324200 0
M  V30 33 H 0.132660 3.481050 0.126400 0
M  V30 34 C -1.058010 4.268870 -1.488790 0
M  V30 35 H -0.226270 4.794510 -1.949870 0
M  V30 36 C -2.332420 4.335280 -2.057810 0
M  V30 37 H -2.492330 4.904010 -2.969180 0
M  V30 38 C -3.403450 3.678290 -1.447930 0
M  V30 39 H -4.395570 3.729660 -1.886480 0
M  V30 40 C -3.202510 2.954720 -0.272490 0
M  V30 41 H -4.033300 2.437540 0.200150 0
M  V30 42 C 2.227740 0.540380 1.919060 0
M  V30 43 H 3.124310 0.201720 2.452160 0
M  V30 44 H 1.687380 1.215320 2.589450 0
M  V30 45 C 2.614260 1.315760 0.675830 0
M  V30 46 C 3.835030 1.977400 0.544150 0
M  V30 47 H 4.578600 1.908810 1.331630 0
M  V30 48 C 4.083320 2.702840 -0.619740 0
M  V30 49 H 5.030080 3.218430 -0.749240 0
M  V30 50 C 3.109540 2.748260 -1.621500 0
M  V30 51 H 3.273140 3.294700 -2.543950 0
M  V30 52 C 1.919650 2.059120 -1.420320 0
M  V30 53 H 1.114770 2.035480 -2.147460 0
M  V30 54 C 2.143140 -1.847900 1.342160 0
M  V30 55 H 1.427350 -2.637030 1.098820 0
M  V30 56 H 2.663480 -2.135370 2.267610 0
M  V30 57 C 3.118880 -1.689930 0.209820 0
M  V30 58 C 4.491950 -1.861140 0.383370 0
M  V30 59 H 4.879200 -2.095500 1.372710 0
M  V30 60 C 5.370570 -1.742320 -0.696930 0
M  V30 61 H 6.436990 -1.879870 -0.548050 0
M  V30 62 C 4.866150 -1.455350 -1.970810 0
M  V30 63 H 5.544620 -1.366000 -2.814490 0
M  V30 64 C 3.498980 -1.284080 -2.166470 0
M  V30 65 H 3.086360 -1.055650 -3.144040 0
M  V30 66 C 2.608970 -1.392720 -1.080840 0
M  V30 67 N -1.059060 -1.745640 0.731910 0
M  V30 68 N -0.835140 1.073830 1.545960 0
M  V30 69 N 1.346970 -0.605560 1.587610 0
M  V30 70 N 1.684940 1.371400 -0.290980 0
M  V30 71 O 1.310280 -1.179170 -1.263280 0
M  V30 72 F -0.936980 0.655510 -1.497600 0
M  V30 END ATOM
M  V30 BEGIN BOND
M  V30 1 1 7 6
M  V30 2 1 9 8
M  V30 3 2 6 8
M  V30 4 1 6 4
M  V30 5 1 8 10
M  V30 6 1 65 64
M  V30 7 1 5 4
M  V30 8 1 37 36
M  V30 9 1 63 62
M  V30 10 2 4 2
M  V30 11 1 51 50
M  V30 12 1 10 11
M  V30 13 2 10 12
M  V30 14 2 64 62
M  V30 15 1 64 66
M  V30 16 1 53 52
M  V30 17 1 36 34
M  V30 18 2 36 38
M  V30 19 1 62 60
M  V30 20 1 35 34
M  V30 21 1 39 38
M  V30 22 2 50 52
M  V30 23 1 50 48
M  V30 24 1 72 1
M  V30 25 2 34 32
M  V30 26 1 2 12
M  V30 27 1 2 3
M  V30 28 1 38 40
M  V30 29 1 52 70
M  V30 30 1 71 66
M  V30 31 1 71 1
M  V30 32 1 12 13
M  V30 33 2 66 57
M  V30 34 1 49 48
M  V30 35 1 60 61
M  V30 36 2 60 58
M  V30 37 2 48 46
M  V30 38 1 32 33
M  V30 39 1 32 31
M  V30 40 2 70 45
M  V30 41 1 40 41
M  V30 42 2 40 31
M  V30 43 1 13 67
M  V30 44 2 13 14
M  V30 45 1 57 58
M  V30 46 1 57 54
M  V30 47 1 31 30
M  V30 48 1 58 59
M  V30 49 1 46 45
M  V30 50 1 46 47
M  V30 51 1 15 14
M  V30 52 1 45 42
M  V30 53 2 67 20
M  V30 54 1 14 16
M  V30 55 1 55 54
M  V30 56 1 54 69
M  V30 57 1 54 56
M  V30 58 2 30 68
M  V30 59 1 30 28
M  V30 60 1 68 23
M  V30 61 1 69 42
M  V30 62 1 69 21
M  V30 63 1 42 43
M  V30 64 1 42 44
M  V30 65 1 20 21
M  V30 66 1 20 18
M  V30 67 2 16 18
M  V30 68 1 16 17
M  V30 69 1 21 23
M  V30 70 1 21 22
M  V30 71 1 29 28
M  V30 72 2 23 24
M  V30 73 2 28 26
M  V30 74 1 18 19
M  V30 75 1 24 26
M  V30 76 1 24 25
M  V30 77 1 26 27
M  V30 78 9 67 1
M  V30 79 9 68 1
M  V30 80 9 69 1
M  V30 81 9 70 1
M  V30 END BOND
M  V30 END CTAB
M  END
