
     RDKit          3D

  0  0  0  0  0  0  0  0  0  0999 V3000
M  V30 BEGIN CTAB
M  V30 COUNTS 72 81 0 0 0
M  V30 BEGIN ATOM
M  V30 1 Fe 0.125390 -0.218090 -0.139640 0 CHG=1 VAL=6
M  V30 2 C -3.766050 -2.537230 -1.183970 0
M  V30 3 H -4.547460 -2.290660 -0.470000 0
M  V30 4 C -4.079800 -2.706660 -2.530440 0
M  V30 5 H -5.108400 -2.600870 -2.862110 0
M  V30 6 C -3.072350 -3.009820 -3.450650 0
M  V30 7 H -3.319470 -3.146240 -4.499430 0
M  V30 8 C -1.750160 -3.136770 -3.021350 0
M  V30 9 H -0.964880 -3.374310 -3.732740 0
M  V30 10 C -1.428030 -2.949420 -1.679040 0
M  V30 11 H -0.398940 -3.024450 -1.349860 0
M  V30 12 C -2.434290 -2.642790 -0.752870 0
M  V30 13 C -2.115550 -2.489680 0.681850 0
M  V30 14 C -2.836810 -3.238790 1.630430 0
M  V30 15 H -3.629350 -3.891300 1.282550 0
M  V30 16 C -2.496050 -3.180620 2.973410 0
M  V30 17 H -3.030480 -3.778380 3.705560 0
M  V30 18 C -1.437370 -2.357450 3.364900 0
M  V30 19 H -1.127060 -2.289380 4.402380 0
M  V30 20 C -0.791910 -1.610270 2.390450 0
M  V30 21 C 0.253430 -0.565930 2.760670 0
M  V30 22 H 0.648980 -0.780980 3.763250 0
M  V30 23 C -0.490610 0.763310 2.774430 0
M  V30 24 C -1.073170 1.241640 3.942890 0
M  V30 25 H -0.917950 0.726140 4.885260 0
M  V30 26 C -1.872070 2.383020 3.860500 0
M  V30 27 H -2.357730 2.782870 4.745520 0
M  V30 28 C -2.008620 3.015520 2.631390 0
M  V30 29 H -2.584010 3.929160 2.531810 0
M  V30 30 C -1.344850 2.507040 1.501710 0
M  V30 31 C -1.374250 3.273480 0.236720 0
M  V30 32 C -0.173190 3.685240 -0.353810 0
M  V30 33 H 0.767030 3.427860 0.119700 0
M  V30 34 C -0.189290 4.434990 -1.527740 0
M  V30 35 H 0.747030 4.755860 -1.975810 0
M  V30 36 C -1.406450 4.776260 -2.122160 0
M  V30 37 H -1.419960 5.353190 -3.042190 0
M  V30 38 C -2.607720 4.384170 -1.526260 0
M  V30 39 H -3.555420 4.648080 -1.985780 0
M  V30 40 C -2.593770 3.646870 -0.343670 0
M  V30 41 H -3.526930 3.324980 0.110190 0
M  V30 42 C 2.304710 0.554460 1.922320 0
M  V30 43 H 3.184230 0.207130 2.477380 0
M  V30 44 H 1.838330 1.343850 2.517740 0
M  V30 45 C 2.726710 1.147190 0.594360 0
M  V30 46 C 3.976040 1.740720 0.413250 0
M  V30 47 H 4.698910 1.740570 1.222830 0
M  V30 48 C 4.278730 2.311560 -0.821140 0
M  V30 49 H 5.247160 2.773650 -0.987020 0
M  V30 50 C 3.327450 2.269330 -1.843210 0
M  V30 51 H 3.528220 2.693100 -2.821140 0
M  V30 52 C 2.106440 1.656110 -1.589850 0
M  V30 53 H 1.322820 1.583300 -2.335660 0
M  V30 54 C 2.031120 -1.872600 1.664360 0
M  V30 55 H 1.257180 -2.631600 1.529750 0
M  V30 56 H 2.538930 -2.070430 2.619330 0
M  V30 57 C 3.005570 -1.939970 0.521110 0
M  V30 58 C 4.361440 -2.200520 0.713490 0
M  V30 59 H 4.741030 -2.335860 1.723950 0
M  V30 60 C 5.232960 -2.297960 -0.375450 0
M  V30 61 H 6.286120 -2.503000 -0.211010 0
M  V30 62 C 4.739400 -2.139520 -1.675760 0
M  V30 63 H 5.413040 -2.218370 -2.524180 0
M  V30 64 C 3.388770 -1.881970 -1.891250 0
M  V30 65 H 2.983750 -1.750180 -2.889490 0
M  V30 66 C 2.508680 -1.773860 -0.797890 0
M  V30 67 N -1.116810 -1.662460 1.079750 0
M  V30 68 N -0.627510 1.360390 1.575040 0
M  V30 69 N 1.330950 -0.551210 1.746340 0
M  V30 70 N 1.815030 1.119040 -0.392620 0
M  V30 71 O 1.227730 -1.484370 -1.001270 0
M  V30 72 Br -1.400090 0.557900 -1.854860 0
M  V30 END ATOM
M  V30 BEGIN BOND
M  V30 1 1 7 6
M  V30 2 1 9 8
M  V30 3 2 6 8
M  V30 4 1 6 4
M  V30 5 1 37 36
M  V30 6 1 8 10
M  V30 7 1 65 64
M  V30 8 1 5 4
M  V30 9 1 51 50
M  V30 10 2 4 2
M  V30 11 1 63 62
M  V30 12 1 53 52
M  V30 13 1 36 34
M  V30 14 2 36 38
M  V30 15 1 39 38
M  V30 16 1 35 34
M  V30 17 2 64 62
M  V30 18 1 64 66
M  V30 19 1 72 1
M  V30 20 2 50 52
M  V30 21 1 50 48
M  V30 22 1 10 11
M  V30 23 2 10 12
M  V30 24 1 62 60
M  V30 25 1 52 70
M  V30 26 2 34 32
M  V30 27 1 38 40
M  V30 28 1 2 12
M  V30 29 1 2 3
M  V30 30 1 71 66
M  V30 31 1 71 1
M  V30 32 1 49 48
M  V30 33 2 48 46
M  V30 34 2 66 57
M  V30 35 1 12 13
M  V30 36 2 70 45
M  V30 37 1 60 61
M  V30 38 2 60 58
M  V30 39 1 32 33
M  V30 40 1 32 31
M  V30 41 1 40 41
M  V30 42 2 40 31
M  V30 43 1 31 30
M  V30 44 1 46 45
M  V30 45 1 46 47
M  V30 46 1 57 58
M  V30 47 1 57 54
M  V30 48 1 45 42
M  V30 49 1 13 67
M  V30 50 2 13 14
M  V30 51 1 58 59
M  V30 52 2 67 20
M  V30 53 1 15 14
M  V30 54 2 30 68
M  V30 55 1 30 28
M  V30 56 1 55 54
M  V30 57 1 68 23
M  V30 58 1 14 16
M  V30 59 1 54 69
M  V30 60 1 54 56
M  V30 61 1 69 42
M  V30 62 1 69 21
M  V30 63 1 42 43
M  V30 64 1 42 44
M  V30 65 1 20 21
M  V30 66 1 20 18
M  V30 67 1 29 28
M  V30 68 2 28 26
M  V30 69 1 21 23
M  V30 70 1 21 22
M  V30 71 2 23 24
M  V30 72 2 16 18
M  V30 73 1 16 17
M  V30 74 1 18 19
M  V30 75 1 26 24
M  V30 76 1 26 27
M  V30 77 1 24 25
M  V30 78 9 67 1
M  V30 79 9 68 1
M  V30 80 9 69 1
M  V30 81 9 70 1
M  V30 END BOND
M  V30 END CTAB
M  END
