
     RDKit          3D

  0  0  0  0  0  0  0  0  0  0999 V3000
M  V30 BEGIN CTAB
M  V30 COUNTS 73 82 0 0 0
M  V30 BEGIN ATOM
M  V30 1 Fe 0.077050 -0.099010 -0.290550 0 CHG=1 VAL=6
M  V30 2 C -3.761160 -2.336160 -1.524420 0
M  V30 3 H -4.535130 -2.274200 -0.764060 0
M  V30 4 C -4.103530 -2.262830 -2.874470 0
M  V30 5 H -5.145290 -2.154570 -3.161280 0
M  V30 6 C -3.108710 -2.325720 -3.853410 0
M  V30 7 H -3.376700 -2.273830 -4.904650 0
M  V30 8 C -1.769210 -2.464880 -3.477380 0
M  V30 9 H -0.993020 -2.532620 -4.234400 0
M  V30 10 C -1.420660 -2.528610 -2.127610 0
M  V30 11 H -0.380250 -2.621510 -1.837260 0
M  V30 12 C -2.416390 -2.452930 -1.141560 0
M  V30 13 C -2.069780 -2.527590 0.297270 0
M  V30 14 C -2.730360 -3.446370 1.131720 0
M  V30 15 H -3.482260 -4.098900 0.702510 0
M  V30 16 C -2.387030 -3.534110 2.474280 0
M  V30 17 H -2.874870 -4.256320 3.121930 0
M  V30 18 C -1.397870 -2.685730 2.977330 0
M  V30 19 H -1.101920 -2.718730 4.020760 0
M  V30 20 C -0.801210 -1.782830 2.107240 0
M  V30 21 C 0.161850 -0.706080 2.602980 0
M  V30 22 H 0.519900 -0.968680 3.608930 0
M  V30 23 C -0.674520 0.567570 2.664670 0
M  V30 24 C -1.303640 0.967750 3.838120 0
M  V30 25 H -1.110440 0.446730 4.770420 0
M  V30 26 C -2.200620 2.036110 3.773330 0
M  V30 27 H -2.719760 2.374750 4.664950 0
M  V30 28 C -2.407160 2.667470 2.552670 0
M  V30 29 H -3.079980 3.513240 2.463950 0
M  V30 30 C -1.701350 2.239200 1.415640 0
M  V30 31 C -1.848400 2.967270 0.133920 0
M  V30 32 C -0.731930 3.564930 -0.461690 0
M  V30 33 H 0.235370 3.481220 0.020240 0
M  V30 34 C -0.868430 4.274310 -1.652900 0
M  V30 35 H 0.000830 4.745810 -2.103380 0
M  V30 36 C -2.121550 4.386170 -2.260210 0
M  V30 37 H -2.228250 4.936120 -3.190820 0
M  V30 38 C -3.240740 3.801910 -1.662030 0
M  V30 39 H -4.217090 3.890840 -2.129310 0
M  V30 40 C -3.108210 3.104460 -0.461880 0
M  V30 41 H -3.976000 2.642070 0.000870 0
M  V30 42 C 2.171150 0.590040 1.933220 0
M  V30 43 H 3.047670 0.261720 2.505250 0
M  V30 44 H 1.632300 1.313230 2.552560 0
M  V30 45 C 2.607120 1.289170 0.661190 0
M  V30 46 C 3.855170 1.897560 0.526870 0
M  V30 47 H 4.579130 1.834520 1.332770 0
M  V30 48 C 4.157370 2.558860 -0.661680 0
M  V30 49 H 5.126620 3.030420 -0.792530 0
M  V30 50 C 3.206740 2.596870 -1.685510 0
M  V30 51 H 3.409880 3.095030 -2.627250 0
M  V30 52 C 1.987520 1.963150 -1.479950 0
M  V30 53 H 1.198380 1.941320 -2.223920 0
M  V30 54 C 2.046420 -1.818740 1.469240 0
M  V30 55 H 1.320280 -2.603050 1.242450 0
M  V30 56 H 2.541300 -2.076730 2.417420 0
M  V30 57 C 3.049140 -1.721490 0.353860 0
M  V30 58 C 4.418540 -1.883630 0.570930 0
M  V30 59 H 4.777570 -2.078090 1.579570 0
M  V30 60 C 5.326250 -1.803320 -0.486940 0
M  V30 61 H 6.388540 -1.933210 -0.305170 0
M  V30 62 C 4.853700 -1.563960 -1.782120 0
M  V30 63 H 5.553150 -1.503030 -2.611320 0
M  V30 64 C 3.491000 -1.403440 -2.020170 0
M  V30 65 H 3.107350 -1.211900 -3.017500 0
M  V30 66 C 2.572280 -1.476000 -0.958030 0
M  V30 67 N -1.118500 -1.707290 0.798070 0
M  V30 68 N -0.859660 1.184090 1.481860 0
M  V30 69 N 1.272090 -0.551100 1.643120 0
M  V30 70 N 1.699740 1.334360 -0.328430 0
M  V30 71 O -1.062920 0.538120 -1.549440 0
M  V30 72 H -1.237340 -0.011840 -2.331230 0
M  V30 73 O 1.271720 -1.278890 -1.182270 0
M  V30 END ATOM
M  V30 BEGIN BOND
M  V30 1 1 7 6
M  V30 2 1 9 8
M  V30 3 2 6 8
M  V30 4 1 6 4
M  V30 5 1 8 10
M  V30 6 1 37 36
M  V30 7 1 5 4
M  V30 8 1 65 64
M  V30 9 2 4 2
M  V30 10 1 51 50
M  V30 11 1 63 62
M  V30 12 1 72 71
M  V30 13 2 36 38
M  V30 14 1 36 34
M  V30 15 1 53 52
M  V30 16 1 39 38
M  V30 17 1 10 11
M  V30 18 2 10 12
M  V30 19 1 35 34
M  V30 20 2 64 62
M  V30 21 1 64 66
M  V30 22 1 62 60
M  V30 23 2 50 52
M  V30 24 1 50 48
M  V30 25 1 38 40
M  V30 26 2 34 32
M  V30 27 1 71 1
M  V30 28 1 2 12
M  V30 29 1 2 3
M  V30 30 1 52 70
M  V30 31 1 73 66
M  V30 32 1 73 1
M  V30 33 1 12 13
M  V30 34 2 66 57
M  V30 35 1 49 48
M  V30 36 2 48 46
M  V30 37 1 60 61
M  V30 38 2 60 58
M  V30 39 1 40 41
M  V30 40 2 40 31
M  V30 41 1 32 33
M  V30 42 1 32 31
M  V30 43 2 70 45
M  V30 44 1 31 30
M  V30 45 1 13 67
M  V30 46 2 13 14
M  V30 47 1 57 58
M  V30 48 1 57 54
M  V30 49 1 46 45
M  V30 50 1 46 47
M  V30 51 1 58 59
M  V30 52 1 45 42
M  V30 53 1 15 14
M  V30 54 2 67 20
M  V30 55 1 14 16
M  V30 56 1 55 54
M  V30 57 2 30 68
M  V30 58 1 30 28
M  V30 59 1 54 69
M  V30 60 1 54 56
M  V30 61 1 68 23
M  V30 62 1 69 42
M  V30 63 1 69 21
M  V30 64 1 42 43
M  V30 65 1 42 44
M  V30 66 1 20 21
M  V30 67 1 20 18
M  V30 68 1 29 28
M  V30 69 2 16 18
M  V30 70 1 16 17
M  V30 71 2 28 26
M  V30 72 1 21 23
M  V30 73 1 21 22
M  V30 74 2 23 24
M  V30 75 1 18 19
M  V30 76 1 26 24
M  V30 77 1 26 27
M  V30 78 1 24 25
M  V30 79 9 67 1
M  V30 80 9 68 1
M  V30 81 9 69 1
M  V30 82 9 70 1
M  V30 END BOND
M  V30 END CTAB
M  END
