
     RDKit          3D

  0  0  0  0  0  0  0  0  0  0999 V3000
M  V30 BEGIN CTAB
M  V30 COUNTS 74 82 0 0 0
M  V30 BEGIN ATOM
M  V30 1 Fe 0.185720 -0.116540 -0.210090 0 CHG=1 RAD=2 VAL=5
M  V30 2 C -3.685600 -2.675400 -1.129800 0
M  V30 3 H -4.386000 -2.687400 -0.298800 0
M  V30 4 C -4.162700 -2.675700 -2.438800 0
M  V30 5 H -5.232500 -2.693700 -2.623100 0
M  V30 6 C -3.265400 -2.640100 -3.508900 0
M  V30 7 H -3.637400 -2.639000 -4.529200 0
M  V30 8 C -1.890600 -2.602300 -3.264700 0
M  V30 9 H -1.189000 -2.580100 -4.093400 0
M  V30 10 C -1.407000 -2.593000 -1.957200 0
M  V30 11 H -0.339400 -2.555800 -1.773300 0
M  V30 12 C -2.303700 -2.623800 -0.878300 0
M  V30 13 C -1.820100 -2.659100 0.520000 0
M  V30 14 C -2.345500 -3.617800 1.408000 0
M  V30 15 H -3.086600 -4.318500 1.041100 0
M  V30 16 C -1.884800 -3.686600 2.714200 0
M  V30 17 H -2.269700 -4.438500 3.396400 0
M  V30 18 C -0.906700 -2.781400 3.133700 0
M  V30 19 H -0.516500 -2.798300 4.146100 0
M  V30 20 C -0.443100 -1.846800 2.219000 0
M  V30 21 C 0.508500 -0.730100 2.637100 0
M  V30 22 H 0.975500 -0.985300 3.598800 0
M  V30 23 C -0.367400 0.506300 2.797800 0
M  V30 24 C -0.901000 0.857700 4.032900 0
M  V30 25 H -0.606900 0.323300 4.930500 0
M  V30 26 C -1.833800 1.895300 4.076300 0
M  V30 27 H -2.280600 2.196700 5.018900 0
M  V30 28 C -2.168900 2.546400 2.895200 0
M  V30 29 H -2.870900 3.372800 2.890100 0
M  V30 30 C -1.557600 2.166000 1.688500 0
M  V30 31 C -1.849400 2.921200 0.447600 0
M  V30 32 C -0.805800 3.514800 -0.275200 0
M  V30 33 H 0.212700 3.397700 0.074400 0
M  V30 34 C -1.079600 4.257400 -1.421300 0
M  V30 35 H -0.265100 4.721500 -1.970700 0
M  V30 36 C -2.398900 4.412500 -1.857000 0
M  V30 37 H -2.612200 4.985600 -2.754500 0
M  V30 38 C -3.443800 3.834400 -1.133500 0
M  V30 39 H -4.469000 3.945100 -1.472700 0
M  V30 40 C -3.172900 3.099600 0.021200 0
M  V30 41 H -3.985300 2.638900 0.576600 0
M  V30 42 C 2.395200 0.655000 1.811100 0
M  V30 43 H 3.318600 0.354800 2.320600 0
M  V30 44 H 1.873500 1.356300 2.468300 0
M  V30 45 C 2.716600 1.368100 0.514700 0
M  V30 46 C 3.937100 2.004600 0.288600 0
M  V30 47 H 4.720800 1.956800 1.037600 0
M  V30 48 C 4.134800 2.672100 -0.917900 0
M  V30 49 H 5.080300 3.165700 -1.120500 0
M  V30 50 C 3.110000 2.685200 -1.868100 0
M  V30 51 H 3.231000 3.184200 -2.823400 0
M  V30 52 C 1.924800 2.023400 -1.572300 0
M  V30 53 H 1.090400 1.978900 -2.264100 0
M  V30 54 C 2.332000 -1.755700 1.337700 0
M  V30 55 H 1.623000 -2.566600 1.155900 0
M  V30 56 H 2.900000 -1.995500 2.248400 0
M  V30 57 C 3.249600 -1.612200 0.157300 0
M  V30 58 C 4.635400 -1.731100 0.272500 0
M  V30 59 H 5.074300 -1.921800 1.249800 0
M  V30 60 C 5.458800 -1.613100 -0.849100 0
M  V30 61 H 6.535200 -1.709500 -0.747700 0
M  V30 62 C 4.884300 -1.380500 -2.104100 0
M  V30 63 H 5.518700 -1.291700 -2.981600 0
M  V30 64 C 3.503600 -1.262700 -2.240500 0
M  V30 65 H 3.040600 -1.078200 -3.204800 0
M  V30 66 C 2.668900 -1.372700 -1.113600 0
M  V30 67 N -0.877300 -1.782200 0.941500 0
M  V30 68 N -0.678900 1.138800 1.650500 0
M  V30 69 N 1.518400 -0.519900 1.578700 0
M  V30 70 N 1.734000 1.391900 -0.402000 0
M  V30 71 O 1.352100 -1.212900 -1.236900 0 RAD=2 VAL=1
M  V30 72 N -1.122700 0.447300 -1.423400 0
M  V30 73 N -2.187200 0.595300 -1.963800 0 CHG=1 VAL=4
M  V30 74 N -3.198400 0.736900 -2.495400 0 CHG=-1 VAL=2
M  V30 END ATOM
M  V30 BEGIN BOND
M  V30 1 1 7 6
M  V30 2 1 9 8
M  V30 3 2 6 8
M  V30 4 1 6 4
M  V30 5 1 8 10
M  V30 6 1 65 64
M  V30 7 1 63 62
M  V30 8 1 51 50
M  V30 9 1 37 36
M  V30 10 1 5 4
M  V30 11 2 74 73
M  V30 12 2 4 2
M  V30 13 1 53 52
M  V30 14 2 64 62
M  V30 15 1 64 66
M  V30 16 1 62 60
M  V30 17 1 35 34
M  V30 18 2 73 72
M  V30 19 1 10 11
M  V30 20 2 10 12
M  V30 21 2 50 52
M  V30 22 1 50 48
M  V30 23 1 36 34
M  V30 24 2 36 38
M  V30 25 1 52 70
M  V30 26 1 39 38
M  V30 27 2 34 32
M  V30 28 1 71 66
M  V30 29 1 38 40
M  V30 30 1 2 12
M  V30 31 1 2 3
M  V30 32 1 49 48
M  V30 33 2 66 57
M  V30 34 2 48 46
M  V30 35 1 12 13
M  V30 36 1 60 61
M  V30 37 2 60 58
M  V30 38 2 70 45
M  V30 39 1 32 33
M  V30 40 1 32 31
M  V30 41 2 40 31
M  V30 42 1 40 41
M  V30 43 1 57 58
M  V30 44 1 57 54
M  V30 45 1 58 59
M  V30 46 1 46 45
M  V30 47 1 46 47
M  V30 48 1 31 30
M  V30 49 1 45 42
M  V30 50 1 13 67
M  V30 51 2 13 14
M  V30 52 2 67 20
M  V30 53 1 15 14
M  V30 54 1 55 54
M  V30 55 1 54 69
M  V30 56 1 54 56
M  V30 57 1 14 16
M  V30 58 1 69 42
M  V30 59 1 69 21
M  V30 60 2 68 30
M  V30 61 1 68 23
M  V30 62 1 30 28
M  V30 63 1 42 43
M  V30 64 1 42 44
M  V30 65 1 20 21
M  V30 66 1 20 18
M  V30 67 1 21 23
M  V30 68 1 21 22
M  V30 69 2 16 18
M  V30 70 1 16 17
M  V30 71 2 23 24
M  V30 72 1 29 28
M  V30 73 2 28 26
M  V30 74 1 18 19
M  V30 75 1 24 26
M  V30 76 1 24 25
M  V30 77 1 26 27
M  V30 78 1 1 72
M  V30 79 9 67 1
M  V30 80 9 68 1
M  V30 81 9 69 1
M  V30 82 9 70 1
M  V30 END BOND
M  V30 END CTAB
M  END
