
     RDKit          3D

  0  0  0  0  0  0  0  0  0  0999 V3000
M  V30 BEGIN CTAB
M  V30 COUNTS 46 49 0 0 0
M  V30 BEGIN ATOM
M  V30 1 Fe -0.032790 -0.020720 0.478230 0 VAL=6
M  V30 2 S 1.611200 1.687300 0.173950 0
M  V30 3 S 1.618710 -1.691910 0.030840 0
M  V30 4 Si 2.951300 -0.000050 0.107340 0 VAL=4
M  V30 5 N -0.781800 0.144410 -1.810360 0
M  V30 6 N -1.908080 1.388740 0.534990 0
M  V30 7 N -1.830580 -1.505700 0.312830 0
M  V30 8 C 4.051790 0.060320 -1.429250 0
M  V30 9 C 4.019140 -0.060700 1.659130 0
M  V30 10 C 0.364110 0.017770 -2.733700 0
M  V30 11 C -1.327270 1.517700 -1.880880 0
M  V30 12 C -1.794760 -0.904050 -2.100730 0
M  V30 13 C -2.385750 1.786030 -0.808420 0
M  V30 14 C -1.496930 2.555290 1.341740 0
M  V30 15 C -2.870080 0.555730 1.286940 0
M  V30 16 C -3.103110 -0.802780 0.620390 0
M  V30 17 C -1.556830 -2.554910 1.315780 0
M  V30 18 C -1.770160 -2.030370 -1.063530 0
M  V30 19 H 3.454530 0.070600 -2.346370 0
M  V30 20 H 4.678460 0.960490 -1.415870 0
M  V30 21 H 4.708890 -0.817590 -1.459310 0
M  V30 22 H 4.659640 -0.951100 1.656740 0
M  V30 23 H 4.656980 0.829060 1.727320 0
M  V30 24 H 3.376910 -0.096590 2.544880 0
M  V30 25 H 0.050960 0.189210 -3.776190 0
M  V30 26 H 1.123090 0.747510 -2.450840 0
M  V30 27 H 0.796320 -0.977920 -2.629620 0
M  V30 28 H -0.479630 2.188870 -1.720880 0
M  V30 29 H -1.751240 1.728680 -2.877310 0
M  V30 30 H -2.787420 -0.449330 -2.146830 0
M  V30 31 H -1.619210 -1.338080 -3.092850 0
M  V30 32 H -3.311770 1.252710 -1.039040 0
M  V30 33 H -2.642150 2.853070 -0.825840 0
M  V30 34 H -0.976250 2.190000 2.227950 0
M  V30 35 H -0.798350 3.163300 0.764890 0
M  V30 36 H -2.367590 3.165880 1.628850 0
M  V30 37 H -2.421920 0.394920 2.267370 0
M  V30 38 H -3.835420 1.074370 1.411870 0
M  V30 39 H -3.682450 -0.685200 -0.298680 0
M  V30 40 H -3.721380 -1.416510 1.287840 0
M  V30 41 H -0.586120 -3.006680 1.107200 0
M  V30 42 H -1.492410 -2.078930 2.294330 0
M  V30 43 H -2.340340 -3.328460 1.306720 0
M  V30 44 H -0.826470 -2.574360 -1.150650 0
M  V30 45 H -2.594260 -2.735200 -1.266360 0
M  V30 46 F -0.283680 -0.085750 2.283360 0
M  V30 END ATOM
M  V30 BEGIN BOND
M  V30 1 1 25 10
M  V30 2 1 31 12
M  V30 3 1 29 11
M  V30 4 1 10 27
M  V30 5 1 10 26
M  V30 6 1 10 5
M  V30 7 1 19 8
M  V30 8 1 30 12
M  V30 9 1 12 5
M  V30 10 1 12 18
M  V30 11 1 11 5
M  V30 12 1 11 28
M  V30 13 1 11 13
M  V30 14 1 21 8
M  V30 15 1 8 20
M  V30 16 1 8 4
M  V30 17 1 45 18
M  V30 18 1 44 18
M  V30 19 1 18 7
M  V30 20 1 32 13
M  V30 21 1 33 13
M  V30 22 1 13 6
M  V30 23 1 39 16
M  V30 24 1 3 4
M  V30 25 1 3 1
M  V30 26 1 4 2
M  V30 27 1 4 9
M  V30 28 1 2 1
M  V30 29 1 7 16
M  V30 30 1 7 17
M  V30 31 1 1 46
M  V30 32 1 6 15
M  V30 33 1 6 14
M  V30 34 1 16 15
M  V30 35 1 16 40
M  V30 36 1 35 14
M  V30 37 1 41 17
M  V30 38 1 15 38
M  V30 39 1 15 37
M  V30 40 1 43 17
M  V30 41 1 17 42
M  V30 42 1 14 36
M  V30 43 1 14 34
M  V30 44 1 22 9
M  V30 45 1 9 23
M  V30 46 1 9 24
M  V30 47 9 5 1
M  V30 48 9 6 1
M  V30 49 9 7 1
M  V30 END BOND
M  V30 END CTAB
M  END
