
     RDKit          3D

  0  0  0  0  0  0  0  0  0  0999 V3000
M  V30 BEGIN CTAB
M  V30 COUNTS 46 49 0 0 0
M  V30 BEGIN ATOM
M  V30 1 Fe 0.020080 -0.056500 -0.000320 0 VAL=6
M  V30 2 S -1.564220 0.406300 -1.689040 0
M  V30 3 S -1.568080 0.388590 1.689740 0
M  V30 4 Si -2.914420 0.371690 -0.001330 0 VAL=4
M  V30 5 N 0.887940 2.169170 -0.049470 0
M  V30 6 N 1.902570 -0.174470 -1.419160 0
M  V30 7 N 1.842840 -0.114670 1.482630 0
M  V30 8 C -4.002580 1.915990 0.010350 0
M  V30 9 C -3.945520 -1.199140 -0.011540 0
M  V30 10 C -0.201530 3.150230 0.131350 0
M  V30 11 C 1.435140 2.280720 -1.418340 0
M  V30 12 C 1.919270 2.343050 1.006020 0
M  V30 13 C 2.440110 1.174800 -1.733240 0
M  V30 14 C 1.503460 -0.873580 -2.661220 0
M  V30 15 C 2.858070 -0.996680 -0.643440 0
M  V30 16 C 3.105800 -0.434440 0.760170 0
M  V30 17 C 1.579530 -1.110210 2.546870 0
M  V30 18 C 1.846670 1.245250 2.066680 0
M  V30 19 H -3.396770 2.827350 0.035060 0
M  V30 20 H -4.632950 1.944270 -0.886670 0
M  V30 21 H -4.654890 1.913120 0.892060 0
M  V30 22 H -4.581760 -1.254040 0.880000 0
M  V30 23 H -4.583320 -1.240510 -0.902740 0
M  V30 24 H -3.272970 -2.062710 -0.018840 0
M  V30 25 H 0.172070 4.178510 0.002530 0
M  V30 26 H -0.982750 2.946180 -0.601450 0
M  V30 27 H -0.629510 3.028440 1.126670 0
M  V30 28 H 0.582710 2.198770 -2.096990 0
M  V30 29 H 1.909850 3.263540 -1.578590 0
M  V30 30 H 2.910950 2.368840 0.548230 0
M  V30 31 H 1.794710 3.313530 1.501840 0
M  V30 32 H 3.368910 1.332610 -1.179650 0
M  V30 33 H 2.711040 1.237650 -2.794420 0
M  V30 34 H 0.987210 -1.797660 -2.400360 0
M  V30 35 H 0.806840 -0.242540 -3.215390 0
M  V30 36 H 2.382960 -1.090800 -3.287040 0
M  V30 37 H 2.415450 -1.990090 -0.558620 0
M  V30 38 H 3.821120 -1.087630 -1.173310 0
M  V30 39 H 3.729030 0.462170 0.709330 0
M  V30 40 H 3.686370 -1.170320 1.328830 0
M  V30 41 H 0.581170 -0.943600 2.954130 0
M  V30 42 H 1.594210 -2.108590 2.111810 0
M  V30 43 H 2.331870 -1.031620 3.347080 0
M  V30 44 H 0.912780 1.348330 2.624120 0
M  V30 45 H 2.682520 1.367660 2.775810 0
M  V30 46 Br -0.168970 -2.637140 -0.015650 0
M  V30 END ATOM
M  V30 BEGIN BOND
M  V30 1 1 36 14
M  V30 2 1 35 14
M  V30 3 1 33 13
M  V30 4 1 14 34
M  V30 5 1 14 6
M  V30 6 1 28 11
M  V30 7 1 13 6
M  V30 8 1 13 11
M  V30 9 1 13 32
M  V30 10 1 2 4
M  V30 11 1 2 1
M  V30 12 1 29 11
M  V30 13 1 6 15
M  V30 14 1 11 5
M  V30 15 1 38 15
M  V30 16 1 23 9
M  V30 17 1 20 8
M  V30 18 1 15 37
M  V30 19 1 15 16
M  V30 20 1 26 10
M  V30 21 1 5 10
M  V30 22 1 5 12
M  V30 23 1 24 9
M  V30 24 1 46 1
M  V30 25 1 9 4
M  V30 26 1 9 22
M  V30 27 1 4 8
M  V30 28 1 4 3
M  V30 29 1 1 3
M  V30 30 1 25 10
M  V30 31 1 8 19
M  V30 32 1 8 21
M  V30 33 1 10 27
M  V30 34 1 30 12
M  V30 35 1 39 16
M  V30 36 1 16 40
M  V30 37 1 16 7
M  V30 38 1 12 31
M  V30 39 1 12 18
M  V30 40 1 7 18
M  V30 41 1 7 17
M  V30 42 1 18 44
M  V30 43 1 18 45
M  V30 44 1 42 17
M  V30 45 1 17 41
M  V30 46 1 17 43
M  V30 47 9 5 1
M  V30 48 9 6 1
M  V30 49 9 7 1
M  V30 END BOND
M  V30 END CTAB
M  END
