
     RDKit          3D

  0  0  0  0  0  0  0  0  0  0999 V3000
M  V30 BEGIN CTAB
M  V30 COUNTS 86 93 0 0 0
M  V30 BEGIN ATOM
M  V30 1 Fe 1.054030 -0.598030 -1.001360 0 VAL=6
M  V30 2 O 0.100710 1.013120 -1.162880 0
M  V30 3 O 0.009480 -1.597000 0.198360 0
M  V30 4 N 2.234450 0.033890 -2.901520 0
M  V30 5 N 2.298010 -2.490100 -1.530620 0
M  V30 6 N -0.157340 -1.568800 -2.713330 0
M  V30 7 Si -0.975240 1.681900 -0.111030 0 VAL=4
M  V30 8 Si -0.862990 -0.963590 1.443740 0 VAL=4
M  V30 9 O -1.317030 0.600010 1.106800 0
M  V30 10 C 3.253500 -0.979950 -3.272460 0
M  V30 11 H 4.191080 -0.490040 -3.563000 0
M  V30 12 H 2.915130 -1.528450 -4.155180 0
M  V30 13 C 3.541060 -1.948020 -2.117110 0
M  V30 14 H 4.206210 -2.754260 -2.467760 0
M  V30 15 H 4.050770 -1.408050 -1.317410 0
M  V30 16 C 1.544950 -3.370400 -2.458470 0
M  V30 17 H 1.651580 -4.420740 -2.158690 0
M  V30 18 H 1.979650 -3.298020 -3.458540 0
M  V30 19 C 0.056900 -3.013890 -2.491960 0
M  V30 20 H -0.452850 -3.617650 -3.260800 0
M  V30 21 H -0.387150 -3.236540 -1.519810 0
M  V30 22 C 0.314380 -1.085890 -4.035640 0
M  V30 23 H -0.540400 -0.876770 -4.690690 0
M  V30 24 H 0.886230 -1.875400 -4.529280 0
M  V30 25 C 1.153240 0.186730 -3.898980 0
M  V30 26 H 1.555210 0.474260 -4.884560 0
M  V30 27 H 0.515600 0.992930 -3.530240 0
M  V30 28 C 2.851440 1.345020 -2.607930 0
M  V30 29 H 3.654050 1.209100 -1.883060 0
M  V30 30 H 2.094870 1.991660 -2.161040 0
M  V30 31 H 3.254750 1.803980 -3.523780 0
M  V30 32 C 2.556020 -3.171610 -0.244440 0
M  V30 33 H 3.219690 -4.038920 -0.382750 0
M  V30 34 H 1.601030 -3.483670 0.178700 0
M  V30 35 H 3.005080 -2.461510 0.450320 0
M  V30 36 C -1.574110 -1.211840 -2.495690 0
M  V30 37 H -2.226890 -1.740600 -3.207110 0
M  V30 38 H -1.692700 -0.135680 -2.613040 0
M  V30 39 H -1.851460 -1.477040 -1.475710 0
M  V30 40 C -0.221970 3.233870 0.604430 0
M  V30 41 C 1.173290 3.304890 0.772830 0
M  V30 42 H 1.792670 2.477320 0.443620 0
M  V30 43 C 1.773310 4.417180 1.364580 0
M  V30 44 H 2.851700 4.438310 1.498440 0
M  V30 45 C 0.983600 5.490210 1.786100 0
M  V30 46 H 1.446480 6.359680 2.246590 0
M  V30 47 C -0.402640 5.444840 1.615600 0
M  V30 48 H -1.018300 6.280480 1.939810 0
M  V30 49 C -0.998430 4.324420 1.031930 0
M  V30 50 H -2.078660 4.300840 0.903780 0
M  V30 51 C -2.601220 2.030350 -0.978450 0
M  V30 52 C -2.740660 3.126420 -1.848820 0
M  V30 53 H -1.916860 3.828140 -1.966030 0
M  V30 54 C -3.925610 3.342110 -2.555940 0
M  V30 55 H -4.014970 4.198280 -3.220330 0
M  V30 56 C -4.998060 2.459150 -2.404470 0
M  V30 57 H -5.922120 2.625380 -2.952880 0
M  V30 58 C -4.881910 1.367020 -1.540700 0
M  V30 59 H -5.716540 0.681700 -1.413120 0
M  V30 60 C -3.695600 1.158250 -0.834210 0
M  V30 61 H -3.618050 0.309900 -0.159240 0
M  V30 62 C -2.436500 -1.971530 1.590990 0
M  V30 63 C -2.466390 -3.320640 1.196140 0
M  V30 64 H -1.560090 -3.781240 0.808140 0
M  V30 65 C -3.638310 -4.075430 1.286450 0
M  V30 66 H -3.640950 -5.118200 0.977570 0
M  V30 67 C -4.809360 -3.487180 1.770380 0
M  V30 68 H -5.724210 -4.070600 1.838830 0
M  V30 69 C -4.802570 -2.146320 2.164240 0
M  V30 70 H -5.713220 -1.684610 2.537940 0
M  V30 71 C -3.626250 -1.399130 2.076580 0
M  V30 72 H -3.631970 -0.353610 2.375950 0
M  V30 73 C 0.162670 -0.945890 3.001200 0
M  V30 74 C 1.046520 0.121600 3.243220 0
M  V30 75 H 1.066900 0.972670 2.568280 0
M  V30 76 C 1.909140 0.104810 4.339370 0
M  V30 77 H 2.597530 0.930630 4.494420 0
M  V30 78 C 1.892970 -0.978330 5.222420 0
M  V30 79 H 2.565000 -0.993250 6.077080 0
M  V30 80 C 1.011220 -2.040620 5.007810 0
M  V30 81 H 0.990550 -2.880050 5.698930 0
M  V30 82 C 0.155770 -2.022880 3.903870 0
M  V30 83 H -0.529180 -2.854440 3.746700 0
M  V30 84 N 2.593600 -0.027180 0.157030 0
M  V30 85 C 3.437690 0.498550 0.812290 0
M  V30 86 S 4.585010 1.232350 1.677270 0
M  V30 END ATOM
M  V30 BEGIN BOND
M  V30 1 1 26 25
M  V30 2 1 23 22
M  V30 3 1 24 22
M  V30 4 1 12 10
M  V30 5 1 22 25
M  V30 6 1 22 6
M  V30 7 1 25 27
M  V30 8 1 25 4
M  V30 9 1 11 10
M  V30 10 1 31 28
M  V30 11 1 18 16
M  V30 12 1 10 4
M  V30 13 1 10 13
M  V30 14 1 20 19
M  V30 15 1 55 54
M  V30 16 1 37 36
M  V30 17 1 57 56
M  V30 18 1 4 28
M  V30 19 1 6 36
M  V30 20 1 6 19
M  V30 21 1 38 36
M  V30 22 1 28 30
M  V30 23 1 28 29
M  V30 24 1 54 56
M  V30 25 2 54 52
M  V30 26 1 36 39
M  V30 27 1 19 16
M  V30 28 1 19 21
M  V30 29 1 14 13
M  V30 30 1 16 17
M  V30 31 1 16 5
M  V30 32 2 56 58
M  V30 33 1 13 5
M  V30 34 1 13 15
M  V30 35 1 53 52
M  V30 36 1 52 51
M  V30 37 1 58 59
M  V30 38 1 58 60
M  V30 39 1 5 32
M  V30 40 1 2 1
M  V30 41 1 2 7
M  V30 42 1 1 84
M  V30 43 1 1 3
M  V30 44 2 51 60
M  V30 45 1 51 7
M  V30 46 1 60 61
M  V30 47 1 33 32
M  V30 48 1 32 34
M  V30 49 1 32 35
M  V30 50 1 7 40
M  V30 51 1 7 9
M  V30 52 2 84 85
M  V30 53 1 3 8
M  V30 54 1 42 41
M  V30 55 2 40 41
M  V30 56 1 40 49
M  V30 57 1 41 43
M  V30 58 1 64 63
M  V30 59 2 85 86
M  V30 60 1 50 49
M  V30 61 1 66 65
M  V30 62 2 49 47
M  V30 63 1 9 8
M  V30 64 2 63 65
M  V30 65 1 63 62
M  V30 66 1 65 67
M  V30 67 1 43 44
M  V30 68 2 43 45
M  V30 69 1 8 62
M  V30 70 1 8 73
M  V30 71 2 62 71
M  V30 72 1 47 45
M  V30 73 1 47 48
M  V30 74 1 67 68
M  V30 75 2 67 69
M  V30 76 1 45 46
M  V30 77 1 71 69
M  V30 78 1 71 72
M  V30 79 1 69 70
M  V30 80 1 75 74
M  V30 81 2 73 74
M  V30 82 1 73 82
M  V30 83 1 74 76
M  V30 84 1 83 82
M  V30 85 2 82 80
M  V30 86 1 76 77
M  V30 87 2 76 78
M  V30 88 1 80 78
M  V30 89 1 80 81
M  V30 90 1 78 79
M  V30 91 9 4 1
M  V30 92 9 5 1
M  V30 93 9 6 1
M  V30 END BOND
M  V30 END CTAB
M  END
