
     RDKit          3D

  0  0  0  0  0  0  0  0  0  0999 V3000
M  V30 BEGIN CTAB
M  V30 COUNTS 94 100 0 0 0
M  V30 BEGIN ATOM
M  V30 1 Fe 0.183400 -0.724940 -0.230430 0 VAL=6
M  V30 2 C 1.127220 3.263760 -2.838220 0
M  V30 3 H 0.554310 2.393230 -2.501350 0
M  V30 4 H 2.103760 2.907100 -3.190790 0
M  V30 5 H 0.601620 3.705600 -3.692830 0
M  V30 6 C 2.085930 5.512050 -2.232830 0
M  V30 7 H 1.553600 5.997500 -3.059100 0
M  V30 8 H 3.074480 5.211810 -2.602560 0
M  V30 9 H 2.233590 6.261650 -1.444640 0
M  V30 10 C -0.091370 4.758110 -1.222730 0
M  V30 11 H -0.651900 3.922510 -0.795210 0
M  V30 12 H -0.678110 5.170070 -2.052470 0
M  V30 13 H -0.005620 5.536200 -0.453640 0
M  V30 14 C 1.292830 4.300930 -1.711570 0
M  V30 15 C 2.099670 3.674660 -0.542080 0
M  V30 16 H 3.109040 3.441910 -0.904170 0
M  V30 17 H 2.225090 4.410140 0.259410 0
M  V30 18 C 0.721240 2.307920 1.055980 0
M  V30 19 C 0.380680 3.388390 1.910540 0
M  V30 20 H 0.763380 4.379960 1.709000 0
M  V30 21 C -0.472220 3.168500 2.971850 0
M  V30 22 H -0.756060 3.994990 3.617650 0
M  V30 23 C -0.987280 1.889060 3.197510 0
M  V30 24 H -1.689220 1.692600 3.999450 0
M  V30 25 C -0.607570 0.873630 2.330910 0
M  V30 26 C -1.081980 -0.533080 2.622530 0
M  V30 27 H -0.386540 -0.953010 3.357720 0
M  V30 28 H -2.067600 -0.493050 3.101110 0
M  V30 29 C -0.568610 -2.772690 1.866720 0
M  V30 30 H -0.759010 -3.485210 1.060830 0
M  V30 31 H -1.061300 -3.156250 2.772040 0
M  V30 32 C 0.925620 -2.661260 2.079000 0
M  V30 33 C 1.572870 -3.388080 3.066870 0
M  V30 34 H 1.010810 -4.031360 3.734910 0
M  V30 35 C 2.965640 -3.256690 3.166820 0
M  V30 36 H 3.510800 -3.794870 3.937680 0
M  V30 37 C 3.648930 -2.439810 2.288870 0
M  V30 38 H 4.722820 -2.323190 2.362350 0
M  V30 39 C 2.923740 -1.741410 1.283930 0
M  V30 40 C 4.971730 -0.891780 0.190670 0
M  V30 41 H 5.404350 -1.901020 0.261770 0
M  V30 42 H 5.414200 -0.295920 1.004750 0
M  V30 43 C 5.394060 -0.283350 -1.165550 0
M  V30 44 C 6.933840 -0.274130 -1.200740 0
M  V30 45 H 7.292390 0.142440 -2.148920 0
M  V30 46 H 7.342050 -1.287930 -1.105550 0
M  V30 47 H 7.347850 0.336830 -0.388870 0
M  V30 48 C 4.873800 1.160260 -1.304740 0
M  V30 49 H 3.782830 1.186040 -1.359580 0
M  V30 50 H 5.265530 1.616750 -2.221920 0
M  V30 51 H 5.191520 1.779180 -0.456320 0
M  V30 52 C 4.860200 -1.146380 -2.325360 0
M  V30 53 H 3.766100 -1.176220 -2.335970 0
M  V30 54 H 5.224300 -2.178060 -2.248750 0
M  V30 55 H 5.195090 -0.740960 -3.287480 0
M  V30 56 C -2.424120 -1.568550 0.781650 0
M  V30 57 H -3.241460 -1.727570 1.496780 0
M  V30 58 H -2.362200 -2.452110 0.145940 0
M  V30 59 C -2.680430 -0.357490 -0.170680 0
M  V30 60 C -3.169580 0.906370 0.556990 0
M  V30 61 C -2.744750 2.154490 0.085520 0
M  V30 62 H -2.057530 2.177380 -0.751870 0
M  V30 63 C -3.175470 3.333060 0.691200 0
M  V30 64 H -2.822830 4.289560 0.314940 0
M  V30 65 C -4.046340 3.287000 1.782450 0
M  V30 66 H -4.379060 4.205380 2.258970 0
M  V30 67 C -4.490400 2.050540 2.251840 0
M  V30 68 H -5.176500 1.999250 3.093590 0
M  V30 69 C -4.057780 0.870770 1.640650 0
M  V30 70 H -4.430060 -0.078710 2.014150 0
M  V30 71 C -3.706030 -0.828220 -1.226820 0
M  V30 72 C -5.076410 -0.561240 -1.143650 0
M  V30 73 H -5.466090 0.052340 -0.338530 0
M  V30 74 C -5.957100 -1.066140 -2.105000 0
M  V30 75 H -7.018750 -0.845300 -2.026700 0
M  V30 76 C -5.478710 -1.842520 -3.160110 0
M  V30 77 H -6.164690 -2.235020 -3.906330 0
M  V30 78 C -4.109960 -2.110630 -3.250790 0
M  V30 79 H -3.723370 -2.716850 -4.065680 0
M  V30 80 C -3.231270 -1.606410 -2.293990 0
M  V30 81 H -2.168670 -1.810440 -2.362660 0
M  V30 82 N 1.547000 2.444480 -0.008720 0
M  V30 83 H 1.620980 1.616440 -0.611810 0
M  V30 84 N 0.228880 1.055060 1.291260 0
M  V30 85 N -1.115450 -1.459170 1.468660 0
M  V30 86 N 1.566970 -1.835450 1.228810 0
M  V30 87 N 3.530150 -0.971170 0.355620 0
M  V30 88 H 2.917080 -0.569310 -0.363870 0
M  V30 89 O -1.462890 -0.081420 -0.815180 0
M  V30 90 O 1.558670 0.069750 -1.321270 0
M  V30 91 H 1.463750 -0.202580 -2.247250 0
M  V30 92 N 0.119310 -2.488700 -1.240030 0
M  V30 93 C -0.250200 -3.609130 -1.403390 0
M  V30 94 S -0.782490 -5.125540 -1.581880 0
M  V30 END ATOM
M  V30 BEGIN BOND
M  V30 1 1 79 78
M  V30 2 1 77 76
M  V30 3 1 5 2
M  V30 4 1 55 52
M  V30 5 2 78 76
M  V30 6 1 78 80
M  V30 7 1 4 2
M  V30 8 1 76 74
M  V30 9 1 7 6
M  V30 10 1 2 3
M  V30 11 1 2 14
M  V30 12 1 8 6
M  V30 13 1 81 80
M  V30 14 1 53 52
M  V30 15 1 52 54
M  V30 16 1 52 43
M  V30 17 2 80 71
M  V30 18 1 91 90
M  V30 19 1 6 14
M  V30 20 1 6 9
M  V30 21 1 50 48
M  V30 22 1 45 44
M  V30 23 1 74 75
M  V30 24 2 74 72
M  V30 25 1 12 10
M  V30 26 1 14 10
M  V30 27 1 14 15
M  V30 28 2 94 93
M  V30 29 2 93 92
M  V30 30 1 49 48
M  V30 31 1 90 1
M  V30 32 1 48 43
M  V30 33 1 48 51
M  V30 34 1 92 1
M  V30 35 1 71 72
M  V30 36 1 71 59
M  V30 37 1 10 11
M  V30 38 1 10 13
M  V30 39 1 44 43
M  V30 40 1 44 46
M  V30 41 1 44 47
M  V30 42 1 43 40
M  V30 43 1 72 73
M  V30 44 1 16 15
M  V30 45 1 89 1
M  V30 46 1 89 59
M  V30 47 1 62 61
M  V30 48 1 83 82
M  V30 49 1 15 82
M  V30 50 1 15 17
M  V30 51 1 88 87
M  V30 52 1 59 60
M  V30 53 1 59 56
M  V30 54 1 82 18
M  V30 55 2 61 60
M  V30 56 1 61 63
M  V30 57 1 58 56
M  V30 58 1 40 41
M  V30 59 1 40 87
M  V30 60 1 40 42
M  V30 61 1 64 63
M  V30 62 1 87 39
M  V30 63 1 60 69
M  V30 64 2 63 65
M  V30 65 1 56 85
M  V30 66 1 56 57
M  V30 67 2 18 84
M  V30 68 1 18 19
M  V30 69 1 30 29
M  V30 70 2 86 39
M  V30 71 1 86 32
M  V30 72 1 39 37
M  V30 73 1 84 25
M  V30 74 1 85 29
M  V30 75 1 85 26
M  V30 76 1 69 70
M  V30 77 2 69 67
M  V30 78 1 20 19
M  V30 79 1 65 67
M  V30 80 1 65 66
M  V30 81 1 29 32
M  V30 82 1 29 31
M  V30 83 2 19 21
M  V30 84 2 32 33
M  V30 85 1 67 68
M  V30 86 1 37 38
M  V30 87 2 37 35
M  V30 88 1 25 26
M  V30 89 2 25 23
M  V30 90 1 26 28
M  V30 91 1 26 27
M  V30 92 1 21 23
M  V30 93 1 21 22
M  V30 94 1 33 35
M  V30 95 1 33 34
M  V30 96 1 35 36
M  V30 97 1 23 24
M  V30 98 9 84 1
M  V30 99 9 85 1
M  V30 100 9 86 1
M  V30 END BOND
M  V30 END CTAB
M  END
