
     RDKit          3D

  0  0  0  0  0  0  0  0  0  0999 V3000
M  V30 BEGIN CTAB
M  V30 COUNTS 94 98 0 0 0
M  V30 BEGIN ATOM
M  V30 1 Fe 0.195990 -0.914830 -0.290670 0 VAL=4
M  V30 2 C 0.976800 3.292700 -2.504300 0
M  V30 3 H 0.432600 2.381800 -2.233500 0
M  V30 4 H 1.965900 2.995200 -2.876400 0
M  V30 5 H 0.439200 3.776800 -3.328000 0
M  V30 6 C 1.849900 5.526200 -1.736900 0
M  V30 7 H 1.297600 6.050900 -2.525200 0
M  V30 8 H 2.847800 5.290600 -2.127900 0
M  V30 9 H 1.972300 6.220900 -0.895800 0
M  V30 10 C -0.297100 4.620200 -0.789500 0
M  V30 11 H -0.824900 3.736900 -0.421000 0
M  V30 12 H -0.899500 5.065400 -1.590600 0
M  V30 13 H -0.240900 5.346600 0.031200 0
M  V30 14 C 1.103600 4.251600 -1.305500 0
M  V30 15 C 1.934300 3.574800 -0.181100 0
M  V30 16 H 2.954500 3.417600 -0.553400 0
M  V30 17 H 2.022900 4.252600 0.674700 0
M  V30 18 C 0.596700 2.034100 1.288000 0
M  V30 19 C 0.192000 3.026700 2.217000 0
M  V30 20 H 0.535500 4.046900 2.107100 0
M  V30 21 C -0.676600 2.684000 3.233300 0
M  V30 22 H -1.011900 3.442200 3.935900 0
M  V30 23 C -1.141800 1.370400 3.340900 0
M  V30 24 H -1.855500 1.081500 4.103500 0
M  V30 25 C -0.697000 0.446200 2.404600 0
M  V30 26 C -1.118200 -1.000700 2.557400 0
M  V30 27 H -0.421700 -1.460200 3.267700 0
M  V30 28 H -2.113800 -1.043800 3.014200 0
M  V30 29 C -0.473600 -3.131300 1.588000 0
M  V30 30 H -0.577500 -3.731200 0.679900 0
M  V30 31 H -0.971000 -3.655900 2.416900 0
M  V30 32 C 1.003500 -2.953900 1.867500 0
M  V30 33 C 1.668500 -3.707800 2.822900 0
M  V30 34 H 1.130700 -4.426900 3.431100 0
M  V30 35 C 3.048100 -3.498800 2.972200 0
M  V30 36 H 3.605300 -4.052700 3.723200 0
M  V30 37 C 3.703500 -2.586900 2.169400 0
M  V30 38 H 4.766100 -2.411400 2.282400 0
M  V30 39 C 2.962100 -1.867000 1.191300 0
M  V30 40 C 4.975300 -0.841700 0.184000 0
M  V30 41 H 5.461200 -1.828100 0.220500 0
M  V30 42 H 5.376900 -0.255600 1.025900 0
M  V30 43 C 5.375600 -0.158200 -1.143300 0
M  V30 44 C 6.913400 -0.076700 -1.167700 0
M  V30 45 H 7.256700 0.398500 -2.093600 0
M  V30 46 H 7.367500 -1.074100 -1.115700 0
M  V30 47 H 7.295100 0.515100 -0.326300 0
M  V30 48 C 4.790100 1.264900 -1.225700 0
M  V30 49 H 3.699400 1.243600 -1.289700 0
M  V30 50 H 5.166800 1.777500 -2.119200 0
M  V30 51 H 5.073400 1.860800 -0.349100 0
M  V30 52 C 4.886200 -0.994600 -2.341800 0
M  V30 53 H 3.794200 -1.067100 -2.365500 0
M  V30 54 H 5.291400 -2.013000 -2.303300 0
M  V30 55 H 5.212500 -0.537500 -3.283500 0
M  V30 56 C -2.375100 -1.915300 0.591900 0
M  V30 57 H -3.201100 -2.184700 1.263100 0
M  V30 58 H -2.248000 -2.720500 -0.132700 0
M  V30 59 C -2.667200 -0.631600 -0.249000 0
M  V30 60 C -3.226300 0.544000 0.576100 0
M  V30 61 C -2.878200 1.844700 0.190300 0
M  V30 62 H -2.200600 1.964100 -0.647000 0
M  V30 63 C -3.370400 2.952400 0.877000 0
M  V30 64 H -3.077000 3.951000 0.564600 0
M  V30 65 C -4.227600 2.782600 1.967200 0
M  V30 66 H -4.608600 3.645900 2.506500 0
M  V30 67 C -4.591700 1.493500 2.355200 0
M  V30 68 H -5.260900 1.344600 3.199100 0
M  V30 69 C -4.096100 0.385100 1.663500 0
M  V30 70 H -4.395200 -0.606800 1.989600 0
M  V30 71 C -3.684500 -1.046200 -1.337800 0
M  V30 72 C -5.041300 -1.245800 -1.051000 0
M  V30 73 H -5.427000 -1.034400 -0.059000 0
M  V30 74 C -5.919100 -1.695400 -2.039200 0
M  V30 75 H -6.969300 -1.841000 -1.798200 0
M  V30 76 C -5.453600 -1.949100 -3.330900 0
M  V30 77 H -6.137400 -2.297300 -4.100800 0
M  V30 78 C -4.103700 -1.747500 -3.624300 0
M  V30 79 H -3.724300 -1.940400 -4.624300 0
M  V30 80 C -3.225900 -1.300300 -2.635500 0
M  V30 81 H -2.179900 -1.144900 -2.866100 0
M  V30 82 N 1.440200 2.283600 0.256000 0
M  V30 83 H 1.543700 1.510800 -0.412700 0
M  V30 84 N 0.155500 0.749100 1.410100 0
M  V30 85 N -1.089300 -1.814700 1.321900 0
M  V30 86 N 1.616200 -2.035600 1.096400 0
M  V30 87 N 3.538700 -1.006200 0.326300 0
M  V30 88 H 2.915500 -0.595300 -0.379200 0
M  V30 89 O -1.461500 -0.248100 -0.848000 0
M  V30 90 O 1.531200 0.038500 -1.307300 0 RAD=2 VAL=1
M  V30 91 H 1.442700 -0.061100 -2.268300 0
M  V30 92 N 0.188500 -2.628500 -1.374800 0
M  V30 93 N 0.084000 -2.544900 -2.578300 0 CHG=1 VAL=4
M  V30 94 N 0.000100 -2.480600 -3.731500 0 CHG=-1 VAL=2
M  V30 END ATOM
M  V30 BEGIN BOND
M  V30 1 1 79 78
M  V30 2 1 77 76
M  V30 3 2 94 93
M  V30 4 2 78 76
M  V30 5 1 78 80
M  V30 6 1 76 74
M  V30 7 1 5 2
M  V30 8 1 55 52
M  V30 9 1 4 2
M  V30 10 1 81 80
M  V30 11 2 80 71
M  V30 12 2 93 92
M  V30 13 1 7 6
M  V30 14 1 2 3
M  V30 15 1 2 14
M  V30 16 1 53 52
M  V30 17 1 52 54
M  V30 18 1 52 43
M  V30 19 1 91 90
M  V30 20 1 8 6
M  V30 21 1 50 48
M  V30 22 1 45 44
M  V30 23 1 74 75
M  V30 24 2 74 72
M  V30 25 1 6 14
M  V30 26 1 6 9
M  V30 27 1 12 10
M  V30 28 1 71 72
M  V30 29 1 71 59
M  V30 30 1 14 10
M  V30 31 1 14 15
M  V30 32 1 49 48
M  V30 33 1 48 43
M  V30 34 1 48 51
M  V30 35 1 44 43
M  V30 36 1 44 46
M  V30 37 1 44 47
M  V30 38 1 43 40
M  V30 39 1 72 73
M  V30 40 1 89 59
M  V30 41 1 10 11
M  V30 42 1 10 13
M  V30 43 1 62 61
M  V30 44 1 16 15
M  V30 45 1 83 82
M  V30 46 1 88 87
M  V30 47 1 59 60
M  V30 48 1 59 56
M  V30 49 1 15 82
M  V30 50 1 15 17
M  V30 51 1 58 56
M  V30 52 1 40 41
M  V30 53 1 40 87
M  V30 54 1 40 42
M  V30 55 2 61 60
M  V30 56 1 61 63
M  V30 57 1 82 18
M  V30 58 1 87 39
M  V30 59 1 64 63
M  V30 60 1 60 69
M  V30 61 1 56 57
M  V30 62 1 56 85
M  V30 63 1 30 29
M  V30 64 2 63 65
M  V30 65 2 86 39
M  V30 66 1 86 32
M  V30 67 1 39 37
M  V30 68 2 18 84
M  V30 69 1 18 19
M  V30 70 1 85 29
M  V30 71 1 85 26
M  V30 72 1 84 25
M  V30 73 1 29 32
M  V30 74 1 29 31
M  V30 75 1 69 70
M  V30 76 2 69 67
M  V30 77 2 32 33
M  V30 78 1 65 67
M  V30 79 1 65 66
M  V30 80 1 20 19
M  V30 81 1 37 38
M  V30 82 2 37 35
M  V30 83 2 19 21
M  V30 84 1 67 68
M  V30 85 1 25 26
M  V30 86 2 25 23
M  V30 87 1 26 28
M  V30 88 1 26 27
M  V30 89 1 33 35
M  V30 90 1 33 34
M  V30 91 1 35 36
M  V30 92 1 21 23
M  V30 93 1 21 22
M  V30 94 1 23 24
M  V30 95 1 1 89
M  V30 96 1 1 92
M  V30 97 9 84 1
M  V30 98 9 86 1
M  V30 END BOND
M  V30 END CTAB
M  END
