
     RDKit          3D

  0  0  0  0  0  0  0  0  0  0999 V3000
M  V30 BEGIN CTAB
M  V30 COUNTS 92 98 0 0 0
M  V30 BEGIN ATOM
M  V30 1 Fe 0.175340 -0.762960 -0.196220 0 VAL=6
M  V30 2 O 1.491570 0.127650 -1.267090 0
M  V30 3 H 1.461940 -0.194090 -2.182090 0
M  V30 4 C 1.016670 3.321240 -2.732930 0
M  V30 5 H 0.496060 2.403940 -2.438270 0
M  V30 6 H 2.026950 3.042180 -3.059230 0
M  V30 7 H 0.490630 3.748320 -3.594800 0
M  V30 8 C 1.805070 5.609300 -2.038810 0
M  V30 9 H 1.277210 6.077840 -2.877620 0
M  V30 10 H 2.825730 5.381910 -2.371460 0
M  V30 11 H 1.870200 6.348890 -1.230240 0
M  V30 12 C -0.356280 4.693600 -1.132690 0
M  V30 13 H -0.878370 3.812500 -0.750080 0
M  V30 14 H -0.935430 5.091150 -1.974690 0
M  V30 15 H -0.350290 5.453340 -0.340820 0
M  V30 16 C 1.071910 4.337760 -1.576930 0
M  V30 17 C 1.872210 3.734990 -0.390800 0
M  V30 18 H 2.903410 3.560190 -0.722760 0
M  V30 19 H 1.932910 4.462470 0.425200 0
M  V30 20 C 0.521890 2.275370 1.148000 0
M  V30 21 C 0.105260 3.322000 2.010760 0
M  V30 22 H 0.439470 4.335770 1.834810 0
M  V30 23 C -0.759730 3.039040 3.047330 0
M  V30 24 H -1.101590 3.838370 3.699230 0
M  V30 25 C -1.212170 1.730930 3.240820 0
M  V30 26 H -1.920230 1.484960 4.023530 0
M  V30 27 C -0.761080 0.751320 2.366840 0
M  V30 28 C -1.168400 -0.683880 2.625350 0
M  V30 29 H -0.476720 -1.074890 3.379670 0
M  V30 30 H -2.169350 -0.701490 3.071420 0
M  V30 31 C -0.480920 -2.873720 1.852520 0
M  V30 32 H -0.571310 -3.563200 1.008310 0
M  V30 33 H -0.972890 -3.322270 2.727930 0
M  V30 34 C 0.989620 -2.643700 2.115530 0
M  V30 35 C 1.665150 -3.313410 3.123840 0
M  V30 36 H 1.137140 -3.994860 3.781810 0
M  V30 37 C 3.040660 -3.072940 3.258300 0
M  V30 38 H 3.605970 -3.561010 4.047820 0
M  V30 39 C 3.680330 -2.211630 2.390560 0
M  V30 40 H 4.739180 -2.009210 2.491190 0
M  V30 41 C 2.930230 -1.577250 1.361240 0
M  V30 42 C 4.935410 -0.605640 0.288270 0
M  V30 43 H 5.429900 -1.580210 0.412530 0
M  V30 44 H 5.328740 0.056580 1.076010 0
M  V30 45 C 5.335050 -0.039770 -1.093530 0
M  V30 46 C 6.871670 0.064600 -1.114900 0
M  V30 47 H 7.215210 0.453230 -2.080360 0
M  V30 48 H 7.341020 -0.915310 -0.963260 0
M  V30 49 H 7.236970 0.741500 -0.332350 0
M  V30 50 C 4.729900 1.360890 -1.310290 0
M  V30 51 H 3.640340 1.318720 -1.384300 0
M  V30 52 H 5.110090 1.796560 -2.242320 0
M  V30 53 H 4.995350 2.037570 -0.488190 0
M  V30 54 C 4.869600 -0.992230 -2.211970 0
M  V30 55 H 3.781270 -1.106650 -2.222890 0
M  V30 56 H 5.307360 -1.989840 -2.086130 0
M  V30 57 H 5.179000 -0.609200 -3.191680 0
M  V30 58 C -2.398880 -1.788540 0.745150 0
M  V30 59 H -3.220180 -2.011590 1.438710 0
M  V30 60 H -2.256510 -2.651960 0.093870 0
M  V30 61 C -2.707800 -0.586200 -0.199640 0
M  V30 62 C -3.264000 0.650230 0.527820 0
M  V30 63 C -2.896610 1.919270 0.063770 0
M  V30 64 H -2.201240 1.979020 -0.765210 0
M  V30 65 C -3.394100 3.073070 0.666010 0
M  V30 66 H -3.085810 4.047040 0.295800 0
M  V30 67 C -4.275460 2.980810 1.745920 0
M  V30 68 H -4.660420 3.880300 2.219130 0
M  V30 69 C -4.660660 1.722630 2.209140 0
M  V30 70 H -5.352120 1.634840 3.043500 0
M  V30 71 C -4.160390 0.567750 1.602230 0
M  V30 72 H -4.483790 -0.400300 1.973840 0
M  V30 73 C -3.705230 -1.090690 -1.267500 0
M  V30 74 C -5.093430 -0.972430 -1.134440 0
M  V30 75 H -5.519840 -0.454140 -0.282360 0
M  V30 76 C -5.947880 -1.498820 -2.107050 0
M  V30 77 H -7.023490 -1.392960 -1.988880 0
M  V30 78 C -5.425510 -2.147260 -3.226170 0
M  V30 79 H -6.090590 -2.553690 -3.983950 0
M  V30 80 C -4.040350 -2.266600 -3.365550 0
M  V30 81 H -3.619400 -2.769400 -4.232500 0
M  V30 82 C -3.186170 -1.743610 -2.395370 0
M  V30 83 H -2.111560 -1.842270 -2.498220 0
M  V30 84 N 1.366740 2.470010 0.107170 0
M  V30 85 H 1.487940 1.661690 -0.512750 0
M  V30 86 N 0.087980 0.996330 1.351560 0
M  V30 87 N -1.115870 -1.598270 1.461650 0
M  V30 88 N 1.585550 -1.773540 1.276140 0
M  V30 89 N 3.499830 -0.771240 0.441450 0
M  V30 90 H 2.873370 -0.418230 -0.292080 0
M  V30 91 O -1.494820 -0.253050 -0.825010 0
M  V30 92 Br 0.374050 -2.978120 -1.575060 0
M  V30 END ATOM
M  V30 BEGIN BOND
M  V30 1 1 81 80
M  V30 2 1 79 78
M  V30 3 1 7 4
M  V30 4 2 80 78
M  V30 5 1 80 82
M  V30 6 1 78 76
M  V30 7 1 57 54
M  V30 8 1 6 4
M  V30 9 1 9 8
M  V30 10 1 4 5
M  V30 11 1 4 16
M  V30 12 1 83 82
M  V30 13 2 82 73
M  V30 14 1 10 8
M  V30 15 1 52 50
M  V30 16 1 55 54
M  V30 17 1 54 56
M  V30 18 1 54 45
M  V30 19 1 3 2
M  V30 20 1 76 77
M  V30 21 2 76 74
M  V30 22 1 47 46
M  V30 23 1 8 16
M  V30 24 1 8 11
M  V30 25 1 14 12
M  V30 26 1 16 12
M  V30 27 1 16 17
M  V30 28 1 92 1
M  V30 29 1 51 50
M  V30 30 1 50 45
M  V30 31 1 50 53
M  V30 32 1 73 74
M  V30 33 1 73 61
M  V30 34 1 2 1
M  V30 35 1 74 75
M  V30 36 1 12 13
M  V30 37 1 12 15
M  V30 38 1 46 45
M  V30 39 1 46 48
M  V30 40 1 46 49
M  V30 41 1 45 42
M  V30 42 1 91 61
M  V30 43 1 91 1
M  V30 44 1 64 63
M  V30 45 1 18 17
M  V30 46 1 85 84
M  V30 47 1 17 84
M  V30 48 1 17 19
M  V30 49 1 90 89
M  V30 50 1 61 62
M  V30 51 1 61 58
M  V30 52 2 63 62
M  V30 53 1 63 65
M  V30 54 1 60 58
M  V30 55 1 84 20
M  V30 56 1 42 43
M  V30 57 1 42 89
M  V30 58 1 42 44
M  V30 59 1 66 65
M  V30 60 1 89 41
M  V30 61 1 62 71
M  V30 62 2 65 67
M  V30 63 1 58 59
M  V30 64 1 58 87
M  V30 65 1 32 31
M  V30 66 2 20 86
M  V30 67 1 20 21
M  V30 68 2 88 41
M  V30 69 1 88 34
M  V30 70 1 86 27
M  V30 71 1 41 39
M  V30 72 1 87 31
M  V30 73 1 87 28
M  V30 74 1 71 72
M  V30 75 2 71 69
M  V30 76 1 67 69
M  V30 77 1 67 68
M  V30 78 1 22 21
M  V30 79 1 31 34
M  V30 80 1 31 33
M  V30 81 2 21 23
M  V30 82 2 34 35
M  V30 83 1 69 70
M  V30 84 1 27 28
M  V30 85 2 27 25
M  V30 86 1 39 40
M  V30 87 2 39 37
M  V30 88 1 28 30
M  V30 89 1 28 29
M  V30 90 1 23 25
M  V30 91 1 23 24
M  V30 92 1 35 37
M  V30 93 1 35 36
M  V30 94 1 25 26
M  V30 95 1 37 38
M  V30 96 9 86 1
M  V30 97 9 87 1
M  V30 98 9 88 1
M  V30 END BOND
M  V30 END CTAB
M  END
