
     RDKit          3D

  0  0  0  0  0  0  0  0  0  0999 V3000
M  V30 BEGIN CTAB
M  V30 COUNTS 92 98 0 0 0
M  V30 BEGIN ATOM
M  V30 1 Fe 0.059940 -0.985950 -0.764470 0 VAL=6
M  V30 2 Cl 1.567190 0.185970 -2.208780 0
M  V30 3 C 0.120090 3.608320 -2.020710 0
M  V30 4 H -0.379330 2.674050 -1.742870 0
M  V30 5 H 0.956030 3.345760 -2.679690 0
M  V30 6 H -0.590430 4.212370 -2.597410 0
M  V30 7 C 1.250060 5.714510 -1.221880 0
M  V30 8 H 0.517730 6.352070 -1.730760 0
M  V30 9 H 2.082070 5.541800 -1.915840 0
M  V30 10 H 1.638130 6.273910 -0.360390 0
M  V30 11 C -0.592430 4.682460 0.137150 0
M  V30 12 H -1.040530 3.758200 0.508440 0
M  V30 13 H -1.366600 5.239930 -0.404100 0
M  V30 14 H -0.290680 5.283980 1.004510 0
M  V30 15 C 0.602930 4.388090 -0.784310 0
M  V30 16 C 1.687950 3.567960 -0.032020 0
M  V30 17 H 2.589230 3.536160 -0.655390 0
M  V30 18 H 1.973520 4.082650 0.892630 0
M  V30 19 C 0.663500 1.702770 1.327220 0
M  V30 20 C 0.404160 2.482770 2.481030 0
M  V30 21 H 0.749110 3.507100 2.532240 0
M  V30 22 C -0.331780 1.932020 3.511170 0
M  V30 23 H -0.561760 2.526980 4.390890 0
M  V30 24 C -0.799830 0.620750 3.403990 0
M  V30 25 H -1.422270 0.176260 4.172210 0
M  V30 26 C -0.478590 -0.096230 2.256900 0
M  V30 27 C -0.915430 -1.544810 2.183550 0
M  V30 28 H -0.174410 -2.130430 2.738320 0
M  V30 29 H -1.868970 -1.657140 2.712320 0
M  V30 30 C -0.408850 -3.469690 0.786820 0
M  V30 31 H -0.560730 -3.854300 -0.224180 0
M  V30 32 H -0.877220 -4.147830 1.515220 0
M  V30 33 C 1.075740 -3.353400 1.044430 0
M  V30 34 C 1.729950 -4.248700 1.879780 0
M  V30 35 H 1.181750 -5.051410 2.360790 0
M  V30 36 C 3.102540 -4.064000 2.091320 0
M  V30 37 H 3.651750 -4.734380 2.747160 0
M  V30 38 C 3.758230 -3.018420 1.474260 0
M  V30 39 H 4.815580 -2.857800 1.639310 0
M  V30 40 C 3.026230 -2.148900 0.617700 0
M  V30 41 C 5.057950 -0.861990 0.056070 0
M  V30 42 H 5.616850 -1.781890 -0.176170 0
M  V30 43 H 5.311600 -0.586640 1.091440 0
M  V30 44 C 5.553350 0.252880 -0.889350 0
M  V30 45 C 7.059630 0.433860 -0.618290 0
M  V30 46 H 7.473820 1.207310 -1.274910 0
M  V30 47 H 7.614220 -0.494290 -0.804990 0
M  V30 48 H 7.246540 0.739520 0.418760 0
M  V30 49 C 4.824120 1.576820 -0.597930 0
M  V30 50 H 3.756140 1.504460 -0.813360 0
M  V30 51 H 5.236010 2.380310 -1.220180 0
M  V30 52 H 4.937310 1.868480 0.453510 0
M  V30 53 C 5.349920 -0.156530 -2.360760 0
M  V30 54 H 4.292880 -0.286560 -2.609520 0
M  V30 55 H 5.873190 -1.095800 -2.579830 0
M  V30 56 H 5.752970 0.615300 -3.027030 0
M  V30 57 C -2.376350 -2.108910 0.232550 0
M  V30 58 H -3.121600 -2.518870 0.926370 0
M  V30 59 H -2.324670 -2.762770 -0.637160 0
M  V30 60 C -2.754500 -0.690310 -0.302130 0
M  V30 61 C -3.251170 0.263880 0.796880 0
M  V30 62 C -2.926450 1.622610 0.701680 0
M  V30 63 H -2.307370 1.943940 -0.127650 0
M  V30 64 C -3.370700 2.533000 1.659020 0
M  V30 65 H -3.102780 3.582020 1.568370 0
M  V30 66 C -4.149560 2.101850 2.735430 0
M  V30 67 H -4.489750 2.810480 3.486040 0
M  V30 68 C -4.494910 0.753770 2.832860 0
M  V30 69 H -5.111830 0.404940 3.657360 0
M  V30 70 C -4.054890 -0.154550 1.866360 0
M  V30 71 H -4.356580 -1.194490 1.950950 0
M  V30 72 C -3.820940 -0.892510 -1.401990 0
M  V30 73 C -5.183600 -0.641780 -1.218080 0
M  V30 74 H -5.544240 -0.252780 -0.271730 0
M  V30 75 C -6.093400 -0.872750 -2.255180 0
M  V30 76 H -7.149470 -0.667880 -2.097210 0
M  V30 77 C -5.649200 -1.354280 -3.485790 0
M  V30 78 H -6.356340 -1.530080 -4.292610 0
M  V30 79 C -4.286530 -1.606440 -3.675150 0
M  V30 80 H -3.929200 -1.979440 -4.631850 0
M  V30 81 C -3.377680 -1.377190 -2.644160 0
M  V30 82 H -2.318330 -1.574970 -2.783590 0
M  V30 83 N 1.346620 2.186080 0.256940 0
M  V30 84 H 1.395230 1.557820 -0.540740 0
M  V30 85 N 0.251090 0.407570 1.245370 0
M  V30 86 N -1.019020 -2.124080 0.827730 0
M  V30 87 N 1.691460 -2.322450 0.427990 0
M  V30 88 N 3.629010 -1.125660 -0.031260 0
M  V30 89 H 3.060210 -0.616260 -0.703290 0
M  V30 90 O -1.599210 -0.160640 -0.899630 0
M  V30 91 O -0.189340 -2.439790 -1.921880 0
M  V30 92 H 0.639110 -2.685030 -2.364750 0
M  V30 END ATOM
M  V30 BEGIN BOND
M  V30 1 1 80 79
M  V30 2 1 78 77
M  V30 3 2 79 77
M  V30 4 1 79 81
M  V30 5 1 77 75
M  V30 6 1 56 53
M  V30 7 1 82 81
M  V30 8 1 5 3
M  V30 9 2 81 72
M  V30 10 1 54 53
M  V30 11 1 6 3
M  V30 12 1 55 53
M  V30 13 1 92 91
M  V30 14 1 53 44
M  V30 15 1 75 76
M  V30 16 2 75 73
M  V30 17 1 2 1
M  V30 18 1 3 4
M  V30 19 1 3 15
M  V30 20 1 91 1
M  V30 21 1 9 7
M  V30 22 1 8 7
M  V30 23 1 72 73
M  V30 24 1 72 60
M  V30 25 1 46 45
M  V30 26 1 7 15
M  V30 27 1 7 10
M  V30 28 1 51 49
M  V30 29 1 73 74
M  V30 30 1 90 1
M  V30 31 1 90 60
M  V30 32 1 44 45
M  V30 33 1 44 49
M  V30 34 1 44 41
M  V30 35 1 50 49
M  V30 36 1 47 45
M  V30 37 1 15 16
M  V30 38 1 15 11
M  V30 39 1 89 88
M  V30 40 1 17 16
M  V30 41 1 59 57
M  V30 42 1 45 48
M  V30 43 1 49 52
M  V30 44 1 84 83
M  V30 45 1 13 11
M  V30 46 1 60 57
M  V30 47 1 60 61
M  V30 48 1 31 30
M  V30 49 1 42 41
M  V30 50 1 63 62
M  V30 51 1 16 83
M  V30 52 1 16 18
M  V30 53 1 88 41
M  V30 54 1 88 40
M  V30 55 1 41 43
M  V30 56 1 11 12
M  V30 57 1 11 14
M  V30 58 1 57 86
M  V30 59 1 57 58
M  V30 60 1 83 19
M  V30 61 2 87 40
M  V30 62 1 87 33
M  V30 63 1 40 38
M  V30 64 2 62 61
M  V30 65 1 62 64
M  V30 66 1 30 86
M  V30 67 1 30 33
M  V30 68 1 30 32
M  V30 69 1 61 70
M  V30 70 1 86 27
M  V30 71 2 33 34
M  V30 72 2 85 19
M  V30 73 1 85 26
M  V30 74 1 19 20
M  V30 75 1 38 39
M  V30 76 2 38 36
M  V30 77 1 65 64
M  V30 78 2 64 66
M  V30 79 1 70 71
M  V30 80 2 70 68
M  V30 81 1 34 36
M  V30 82 1 34 35
M  V30 83 1 36 37
M  V30 84 1 27 26
M  V30 85 1 27 29
M  V30 86 1 27 28
M  V30 87 2 26 24
M  V30 88 1 20 21
M  V30 89 2 20 22
M  V30 90 1 66 68
M  V30 91 1 66 67
M  V30 92 1 68 69
M  V30 93 1 24 22
M  V30 94 1 24 25
M  V30 95 1 22 23
M  V30 96 9 85 1
M  V30 97 9 86 1
M  V30 98 9 87 1
M  V30 END BOND
M  V30 END CTAB
M  END
