
     RDKit          3D

  0  0  0  0  0  0  0  0  0  0999 V3000
M  V30 BEGIN CTAB
M  V30 COUNTS 46 50 0 0 0
M  V30 BEGIN ATOM
M  V30 1 H -0.694410 -1.602500 3.109790 0
M  V30 2 H -3.146960 -2.193580 1.237240 0
M  V30 3 H -1.877020 -0.400050 2.651490 0
M  V30 4 C -0.941260 -0.865040 2.331170 0
M  V30 5 H -3.286090 0.293560 1.346180 0
M  V30 6 H 0.234310 0.728470 3.233680 0
M  V30 7 C -2.516290 -1.586940 0.560430 0
M  V30 8 H -1.748130 1.675470 2.130820 0
M  V30 9 H -4.177190 -0.343800 -0.015280 0
M  V30 10 C -0.432000 -2.796370 0.928990 0
M  V30 11 C -3.160910 -0.202200 0.378500 0
M  V30 12 N -1.123030 -1.506950 1.023440 0
M  V30 13 C 0.175760 0.187720 2.272120 0
M  V30 14 H -2.475180 -2.083650 -0.413470 0
M  V30 15 H 1.128850 -0.329760 2.133120 0
M  V30 16 C -1.171410 1.989940 1.255940 0
M  V30 17 H -0.857580 3.023240 1.462900 0
M  V30 18 H -2.991820 2.569610 0.244170 0
M  V30 19 N 0.004690 1.100640 1.133550 0
M  V30 20 N -2.372100 0.663200 -0.520660 0
M  V30 21 C -2.070800 2.008220 0.003150 0
M  V30 22 H 1.624930 2.439480 1.584790 0
M  V30 23 C -2.934720 0.721600 -1.880100 0
M  V30 24 C 1.242110 1.805840 0.766360 0
M  V30 25 H -1.534420 2.517830 -0.799120 0
M  V30 26 Fe -0.273350 -0.181390 -0.894160 0 VAL=6
M  V30 27 H 0.983970 2.417660 -0.106830 0
M  V30 28 C 2.312570 0.833420 0.307050 0
M  V30 29 N 1.880790 -0.206800 -0.433090 0
M  V30 30 H 3.989370 1.843670 1.202820 0
M  V30 31 C 3.667260 1.004760 0.592650 0
M  V30 32 C 2.762220 -1.094220 -0.912580 0
M  V30 33 H 2.325140 -1.898780 -1.498370 0
M  V30 34 C 4.590280 0.086900 0.087150 0
M  V30 35 C 4.132010 -0.985530 -0.680510 0
M  V30 36 H 5.650070 0.204600 0.295420 0
M  V30 37 H 4.816400 -1.722580 -1.088470 0
M  V30 38 H -2.215100 1.243800 -2.514390 0
M  V30 39 H -3.917360 1.224030 -1.900080 0
M  V30 40 H -3.039760 -0.300000 -2.256710 0
M  V30 41 H 0.609590 -2.661370 1.239130 0
M  V30 42 H -0.433460 -3.099380 -0.118930 0
M  V30 43 H -0.894460 -3.570770 1.566840 0
M  V30 44 O 0.016840 1.519260 -1.902850 0
M  V30 45 H 0.838460 1.490810 -2.414370 0
M  V30 46 F -0.511260 -1.767030 -1.814020 0
M  V30 END ATOM
M  V30 BEGIN BOND
M  V30 1 1 38 23
M  V30 2 1 45 44
M  V30 3 1 40 23
M  V30 4 1 44 26
M  V30 5 1 39 23
M  V30 6 1 23 20
M  V30 7 1 46 26
M  V30 8 1 33 32
M  V30 9 1 37 35
M  V30 10 1 32 35
M  V30 11 2 32 29
M  V30 12 1 25 21
M  V30 13 2 35 34
M  V30 14 1 20 21
M  V30 15 1 20 11
M  V30 16 1 29 28
M  V30 17 1 14 7
M  V30 18 1 42 10
M  V30 19 1 27 24
M  V30 20 1 9 11
M  V30 21 1 21 18
M  V30 22 1 21 16
M  V30 23 1 34 36
M  V30 24 1 34 31
M  V30 25 2 28 31
M  V30 26 1 28 24
M  V30 27 1 11 7
M  V30 28 1 11 5
M  V30 29 1 7 12
M  V30 30 1 7 2
M  V30 31 1 31 30
M  V30 32 1 24 19
M  V30 33 1 24 22
M  V30 34 1 10 12
M  V30 35 1 10 41
M  V30 36 1 10 43
M  V30 37 1 12 4
M  V30 38 1 19 16
M  V30 39 1 19 13
M  V30 40 1 16 17
M  V30 41 1 16 8
M  V30 42 1 15 13
M  V30 43 1 13 4
M  V30 44 1 13 6
M  V30 45 1 4 3
M  V30 46 1 4 1
M  V30 47 9 12 26
M  V30 48 9 19 26
M  V30 49 9 20 26
M  V30 50 9 29 26
M  V30 END BOND
M  V30 END CTAB
M  END
