
     RDKit          3D

  0  0  0  0  0  0  0  0  0  0999 V3000
M  V30 BEGIN CTAB
M  V30 COUNTS 46 50 0 0 0
M  V30 BEGIN ATOM
M  V30 1 H 1.346890 -3.700870 -0.557480 0
M  V30 2 H 3.602320 -2.186610 0.974790 0
M  V30 3 H 2.363780 -2.466010 -1.259330 0
M  V30 4 C 1.435510 -2.614600 -0.702420 0
M  V30 5 H 3.480480 -0.802440 -1.089290 0
M  V30 6 H 0.271290 -2.582730 -2.536440 0
M  V30 7 C 2.845140 -1.384230 0.909230 0
M  V30 8 H 1.965470 -0.836540 -2.667950 0
M  V30 9 H 4.276490 0.060690 0.203370 0
M  V30 10 C 0.947640 -2.709960 1.689550 0
M  V30 11 C 3.304120 -0.337660 -0.115270 0
M  V30 12 N 1.507910 -1.911790 0.590090 0
M  V30 13 C 0.240090 -2.129760 -1.530390 0
M  V30 14 H 2.755430 -0.906960 1.889390 0
M  V30 15 H -0.675800 -2.475440 -1.046220 0
M  V30 16 C 1.255610 -0.048990 -2.398530 0
M  V30 17 H 0.871250 0.345080 -3.348880 0
M  V30 18 H 2.879050 1.372810 -2.243910 0
M  V30 19 N 0.163670 -0.658130 -1.603160 0
M  V30 20 N 2.319900 0.761600 -0.263920 0
M  V30 21 C 1.982800 1.093940 -1.662450 0
M  V30 22 H -1.494380 -0.640630 -2.963750 0
M  V30 23 C 2.755930 1.954150 0.488910 0
M  V30 24 C -1.183310 -0.211720 -1.996310 0
M  V30 25 H 1.319470 1.960840 -1.613370 0
M  V30 26 Fe 0.316870 0.151270 0.656470 0 VAL=6
M  V30 27 H -1.153140 0.880210 -2.086230 0
M  V30 28 C -2.200270 -0.539550 -0.918770 0
M  V30 29 N -1.728890 -0.564750 0.339310 0
M  V30 30 H -3.903450 -0.735200 -2.221980 0
M  V30 31 C -3.549950 -0.751180 -1.195120 0
M  V30 32 C -2.568360 -0.772340 1.361990 0
M  V30 33 H -2.101830 -0.748170 2.342860 0
M  V30 34 C -4.428850 -0.969620 -0.133440 0
M  V30 35 C -3.932200 -0.979190 1.171190 0
M  V30 36 H -5.486650 -1.128840 -0.322830 0
M  V30 37 H -4.584610 -1.141090 2.023090 0
M  V30 38 H 1.974140 2.713110 0.435100 0
M  V30 39 H 3.705820 2.354010 0.097290 0
M  V30 40 H 2.877440 1.670850 1.537520 0
M  V30 41 H -0.064970 -3.021320 1.414540 0
M  V30 42 H 0.874960 -2.073340 2.573140 0
M  V30 43 H 1.554290 -3.607360 1.900710 0
M  V30 44 O 0.547500 0.147750 2.525930 0
M  V30 45 H 0.269950 0.996890 2.902810 0
M  V30 46 Br -0.765820 2.588570 0.146920 0
M  V30 END ATOM
M  V30 BEGIN BOND
M  V30 1 1 17 16
M  V30 2 1 22 24
M  V30 3 1 8 16
M  V30 4 1 6 13
M  V30 5 1 16 21
M  V30 6 1 16 19
M  V30 7 1 18 21
M  V30 8 1 30 31
M  V30 9 1 27 24
M  V30 10 1 24 19
M  V30 11 1 24 28
M  V30 12 1 21 25
M  V30 13 1 21 20
M  V30 14 1 19 13
M  V30 15 1 13 15
M  V30 16 1 13 4
M  V30 17 1 3 4
M  V30 18 1 31 28
M  V30 19 2 31 34
M  V30 20 1 5 11
M  V30 21 2 28 29
M  V30 22 1 4 1
M  V30 23 1 4 12
M  V30 24 1 36 34
M  V30 25 1 20 11
M  V30 26 1 20 23
M  V30 27 1 34 35
M  V30 28 1 11 9
M  V30 29 1 11 7
M  V30 30 1 39 23
M  V30 31 1 46 26
M  V30 32 1 29 32
M  V30 33 1 38 23
M  V30 34 1 23 40
M  V30 35 1 12 7
M  V30 36 1 12 10
M  V30 37 1 26 44
M  V30 38 1 7 2
M  V30 39 1 7 14
M  V30 40 2 35 32
M  V30 41 1 35 37
M  V30 42 1 32 33
M  V30 43 1 41 10
M  V30 44 1 10 43
M  V30 45 1 10 42
M  V30 46 1 44 45
M  V30 47 9 12 26
M  V30 48 9 19 26
M  V30 49 9 20 26
M  V30 50 9 29 26
M  V30 END BOND
M  V30 END CTAB
M  END
