
     RDKit          3D

  0  0  0  0  0  0  0  0  0  0999 V3000
M  V30 BEGIN CTAB
M  V30 COUNTS 46 50 0 0 0
M  V30 BEGIN ATOM
M  V30 1 H -0.912680 3.397510 -1.159930 0
M  V30 2 H -3.311060 2.406750 0.570120 0
M  V30 3 H -2.041900 2.160440 -1.656570 0
M  V30 4 C -1.106490 2.316060 -1.113640 0
M  V30 5 H -3.332070 0.675460 -1.215940 0
M  V30 6 H 0.060840 1.852180 -2.886560 0
M  V30 7 C -2.637990 1.534490 0.659950 0
M  V30 8 H -1.807410 0.288960 -2.745620 0
M  V30 9 H -4.207620 0.135460 0.195570 0
M  V30 10 C -0.618460 2.782620 1.232640 0
M  V30 11 C -3.200800 0.373760 -0.172860 0
M  V30 12 N -1.254210 1.862780 0.279570 0
M  V30 13 C 0.039560 1.579540 -1.816960 0
M  V30 14 H -2.597310 1.230950 1.710110 0
M  V30 15 H 0.982740 1.911860 -1.377570 0
M  V30 16 C -1.181730 -0.506730 -2.330490 0
M  V30 17 H -0.838060 -1.096120 -3.191440 0
M  V30 18 H -2.941670 -1.711480 -1.967710 0
M  V30 19 N -0.035520 0.118930 -1.631600 0
M  V30 20 N -2.330990 -0.824170 -0.111650 0
M  V30 21 C -2.023910 -1.426440 -1.423580 0
M  V30 22 H 1.617400 -0.314580 -2.927270 0
M  V30 23 C -2.872780 -1.820410 0.831920 0
M  V30 24 C 1.257450 -0.528130 -1.906440 0
M  V30 25 H -1.450800 -2.331260 -1.210330 0
M  V30 26 Fe -0.275620 -0.274090 0.734490 0 VAL=6
M  V30 27 H 1.109900 -1.608230 -1.799730 0
M  V30 28 C 2.300870 -0.120910 -0.881890 0
M  V30 29 N 1.833760 0.177890 0.341870 0
M  V30 30 H 4.017190 -0.333820 -2.165620 0
M  V30 31 C 3.665910 -0.099580 -1.164860 0
M  V30 32 C 2.688790 0.479600 1.327080 0
M  V30 33 H 2.220190 0.680980 2.286520 0
M  V30 34 C 4.561610 0.216100 -0.142390 0
M  V30 35 C 4.067240 0.509850 1.129700 0
M  V30 36 H 5.630370 0.231920 -0.336800 0
M  V30 37 H 4.731960 0.756060 1.951440 0
M  V30 38 H -2.157420 -2.638520 0.927580 0
M  V30 39 H -3.852820 -2.202330 0.500550 0
M  V30 40 H -2.973880 -1.345000 1.811060 0
M  V30 41 H 0.421450 2.937430 0.928250 0
M  V30 42 H -0.613320 2.308800 2.215850 0
M  V30 43 H -1.130510 3.759830 1.269720 0
M  V30 44 O -0.502990 0.105220 2.570990 0
M  V30 45 H -0.322630 -0.681220 3.108110 0
M  V30 46 Cl 0.456610 -2.663190 0.587360 0
M  V30 END ATOM
M  V30 BEGIN BOND
M  V30 1 1 17 16
M  V30 2 1 22 24
M  V30 3 1 6 13
M  V30 4 1 8 16
M  V30 5 1 16 19
M  V30 6 1 16 21
M  V30 7 1 30 31
M  V30 8 1 18 21
M  V30 9 1 24 27
M  V30 10 1 24 19
M  V30 11 1 24 28
M  V30 12 1 13 19
M  V30 13 1 13 15
M  V30 14 1 13 4
M  V30 15 1 3 4
M  V30 16 1 21 25
M  V30 17 1 21 20
M  V30 18 1 5 11
M  V30 19 1 31 28
M  V30 20 2 31 34
M  V30 21 1 1 4
M  V30 22 1 4 12
M  V30 23 2 28 29
M  V30 24 1 36 34
M  V30 25 1 11 20
M  V30 26 1 11 9
M  V30 27 1 11 7
M  V30 28 1 34 35
M  V30 29 1 20 23
M  V30 30 1 12 7
M  V30 31 1 12 10
M  V30 32 1 29 32
M  V30 33 1 39 23
M  V30 34 1 2 7
M  V30 35 1 46 26
M  V30 36 1 7 14
M  V30 37 1 26 44
M  V30 38 1 23 38
M  V30 39 1 23 40
M  V30 40 1 41 10
M  V30 41 2 35 32
M  V30 42 1 35 37
M  V30 43 1 10 43
M  V30 44 1 10 42
M  V30 45 1 32 33
M  V30 46 1 44 45
M  V30 47 9 12 26
M  V30 48 9 19 26
M  V30 49 9 20 26
M  V30 50 9 29 26
M  V30 END BOND
M  V30 END CTAB
M  END
