
     RDKit          3D

  0  0  0  0  0  0  0  0  0  0999 V3000
M  V30 BEGIN CTAB
M  V30 COUNTS 48 51 0 0 0
M  V30 BEGIN ATOM
M  V30 1 H 0.751900 -1.948800 2.998300 0
M  V30 2 H 3.178100 -0.027000 2.620600 0
M  V30 3 H 1.966100 -2.125800 1.755000 0
M  V30 4 C 1.013100 -1.638700 1.976100 0
M  V30 5 H 3.352900 -1.322600 0.507600 0
M  V30 6 H -0.097300 -3.246500 1.025900 0
M  V30 7 C 2.559800 0.275700 1.755600 0
M  V30 8 H 1.893300 -2.708700 -0.322500 0
M  V30 9 H 4.223900 0.186900 0.391100 0
M  V30 10 C 0.455700 0.519700 2.969700 0
M  V30 11 C 3.213800 -0.238600 0.464000 0
M  V30 12 N 1.165000 -0.176900 1.887500 0
M  V30 13 C -0.071600 -2.142600 1.016500 0
M  V30 14 H 2.518300 1.368300 1.721300 0
M  V30 15 H -1.040900 -1.790000 1.376500 0
M  V30 16 C 1.304100 -2.128600 -1.038400 0
M  V30 17 H 1.027400 -2.833100 -1.835000 0
M  V30 18 H 3.108000 -1.459300 -2.028700 0
M  V30 19 N 0.100800 -1.614200 -0.347700 0
M  V30 20 N 2.417900 0.108600 -0.735100 0
M  V30 21 C 2.167600 -1.013600 -1.659100 0
M  V30 22 H -1.493300 -2.778200 -1.180000 0
M  V30 23 C 2.987000 1.273300 -1.436600 0
M  V30 24 C -1.133500 -1.735900 -1.136800 0
M  V30 25 H 1.627200 -0.582500 -2.505200 0
M  V30 26 Fe 0.316000 0.795080 -0.136410 0 VAL=5
M  V30 27 H -0.910300 -1.420100 -2.160300 0
M  V30 28 C -2.229100 -0.829700 -0.601700 0
M  V30 29 N -1.816400 0.290100 0.015000 0
M  V30 30 H -3.886900 -2.027600 -1.274000 0
M  V30 31 C -3.583500 -1.112200 -0.775100 0
M  V30 32 C -2.721600 1.178900 0.450300 0
M  V30 33 H -2.298200 2.066100 0.913300 0
M  V30 34 C -4.527400 -0.194600 -0.317400 0
M  V30 35 C -4.090700 0.976900 0.304500 0
M  V30 36 H -5.588000 -0.387300 -0.450800 0
M  V30 37 H -4.793700 1.719800 0.667000 0
M  V30 38 H 2.308500 1.561400 -2.241100 0
M  V30 39 H 3.990700 1.057200 -1.839500 0
M  V30 40 H 3.046600 2.104900 -0.729500 0
M  V30 41 H -0.585900 0.183700 2.977900 0
M  V30 42 H 0.461700 1.589000 2.751600 0
M  V30 43 H 0.905200 0.317000 3.957500 0
M  V30 44 O 0.487700 2.479200 0.714800 0
M  V30 45 H 0.388500 3.209500 0.085900 0
M  V30 46 N -0.023800 1.120600 -2.217800 0
M  V30 47 N -1.081600 1.015300 -2.788100 0 CHG=1 VAL=4
M  V30 48 N -2.092800 0.883800 -3.349000 0 CHG=-1 VAL=2
M  V30 END ATOM
M  V30 BEGIN BOND
M  V30 1 2 48 47
M  V30 2 2 47 46
M  V30 3 1 25 21
M  V30 4 1 38 23
M  V30 5 1 27 24
M  V30 6 1 18 21
M  V30 7 1 39 23
M  V30 8 1 17 16
M  V30 9 1 21 16
M  V30 10 1 21 20
M  V30 11 1 23 20
M  V30 12 1 23 40
M  V30 13 1 30 31
M  V30 14 1 22 24
M  V30 15 1 24 28
M  V30 16 1 24 19
M  V30 17 1 16 19
M  V30 18 1 16 8
M  V30 19 1 31 28
M  V30 20 2 31 34
M  V30 21 1 20 11
M  V30 22 2 28 29
M  V30 23 1 36 34
M  V30 24 1 19 13
M  V30 25 1 34 35
M  V30 26 1 29 32
M  V30 27 1 45 44
M  V30 28 2 35 32
M  V30 29 1 35 37
M  V30 30 1 9 11
M  V30 31 1 32 33
M  V30 32 1 11 5
M  V30 33 1 11 7
M  V30 34 1 13 6
M  V30 35 1 13 15
M  V30 36 1 13 4
M  V30 37 1 14 7
M  V30 38 1 3 4
M  V30 39 1 7 12
M  V30 40 1 7 2
M  V30 41 1 12 4
M  V30 42 1 12 10
M  V30 43 1 4 1
M  V30 44 1 42 10
M  V30 45 1 10 41
M  V30 46 1 10 43
M  V30 47 1 26 44
M  V30 48 1 26 46
M  V30 49 9 19 26
M  V30 50 9 20 26
M  V30 51 9 29 26
M  V30 END BOND
M  V30 END CTAB
M  END
