
     RDKit          3D

  0  0  0  0  0  0  0  0  0  0999 V3000
M  V30 BEGIN CTAB
M  V30 COUNTS 54 60 0 0 0
M  V30 BEGIN ATOM
M  V30 1 N -2.066880 -1.499800 0.105770 0
M  V30 2 C -3.151980 -0.714930 0.772180 0
M  V30 3 C -3.331940 0.647100 0.112480 0
M  V30 4 N -2.052530 1.407210 -0.033960 0
M  V30 5 C -1.514790 2.011870 1.220390 0
M  V30 6 C -0.825260 1.024610 2.186950 0
M  V30 7 N -0.142400 -0.128690 1.514420 0
M  V30 8 C -1.316140 -2.330610 1.080520 0
M  V30 9 C -0.539940 -1.458710 2.091480 0
M  V30 10 C 1.338240 0.018340 1.402800 0
M  V30 11 C 1.860270 -1.141570 0.557380 0
M  V30 12 C 1.666310 1.293420 0.637620 0
M  V30 13 N 0.960160 1.439090 -0.504280 0
M  V30 14 C 1.250830 2.447440 -1.342250 0
M  V30 15 C 2.244850 3.381090 -1.052340 0
M  V30 16 C 2.951640 3.256160 0.144290 0
M  V30 17 C 2.663900 2.188090 1.002910 0
M  V30 18 N 1.115450 -1.395120 -0.540830 0
M  V30 19 C 1.509510 -2.341460 -1.409270 0
M  V30 20 C 2.666580 -3.090610 -1.205410 0
M  V30 21 C 3.432130 -2.841000 -0.065310 0
M  V30 22 C 3.024600 -1.846680 0.832150 0
M  V30 23 Fe -0.611510 -0.067780 -0.730870 0 CHG=2 VAL=6
M  V30 24 C -2.609000 -2.337680 -0.996890 0
M  V30 25 C -2.268040 2.481200 -1.046620 0
M  V30 26 O -0.988070 -0.094830 -2.470040 0
M  V30 27 H -2.913800 -0.604990 1.828650 0
M  V30 28 H -4.097340 -1.267940 0.724450 0
M  V30 29 H -4.066940 1.242950 0.669380 0
M  V30 30 H -3.720470 0.507940 -0.899520 0
M  V30 31 H -2.314110 2.538590 1.758490 0
M  V30 32 H -0.792620 2.763750 0.903180 0
M  V30 33 H -1.556460 0.621020 2.885780 0
M  V30 34 H -0.107800 1.587760 2.794380 0
M  V30 35 H -0.626310 -2.947670 0.503880 0
M  V30 36 H -1.996290 -3.006290 1.616140 0
M  V30 37 H 0.346280 -2.008210 2.418310 0
M  V30 38 H -1.132790 -1.288260 2.991300 0
M  V30 39 H 1.819890 0.025680 2.388270 0
M  V30 40 H 0.668660 2.490680 -2.256700 0
M  V30 41 H 2.455220 4.183650 -1.750940 0
M  V30 42 H 3.724680 3.972540 0.404820 0
M  V30 43 H 3.210110 2.054010 1.931150 0
M  V30 44 H 0.873260 -2.487810 -2.276130 0
M  V30 45 H 2.956310 -3.848870 -1.924750 0
M  V30 46 H 4.336780 -3.410050 0.125610 0
M  V30 47 H 3.602340 -1.628030 1.724590 0
M  V30 48 H -3.136570 -1.700640 -1.707190 0
M  V30 49 H -1.780390 -2.817930 -1.520720 0
M  V30 50 H -3.288120 -3.104810 -0.605700 0
M  V30 51 H -2.513410 2.019590 -2.003420 0
M  V30 52 H -3.077710 3.151280 -0.733310 0
M  V30 53 H -1.353370 3.062550 -1.159030 0
M  V30 54 H -0.722330 -0.214940 -3.394160 0
M  V30 END ATOM
M  V30 BEGIN BOND
M  V30 1 1 54 26
M  V30 2 1 26 23
M  V30 3 1 44 19
M  V30 4 1 40 14
M  V30 5 1 51 25
M  V30 6 1 45 20
M  V30 7 1 41 15
M  V30 8 1 48 24
M  V30 9 1 49 24
M  V30 10 1 19 20
M  V30 11 2 19 18
M  V30 12 1 14 15
M  V30 13 2 14 13
M  V30 14 2 20 21
M  V30 15 1 53 25
M  V30 16 2 15 16
M  V30 17 1 25 52
M  V30 18 1 25 4
M  V30 19 1 24 50
M  V30 20 1 24 1
M  V30 21 1 30 3
M  V30 22 1 18 11
M  V30 23 1 13 12
M  V30 24 1 21 46
M  V30 25 1 21 22
M  V30 26 1 4 3
M  V30 27 1 4 5
M  V30 28 1 1 2
M  V30 29 1 1 8
M  V30 30 1 3 29
M  V30 31 1 3 2
M  V30 32 1 16 42
M  V30 33 1 16 17
M  V30 34 1 35 8
M  V30 35 2 11 22
M  V30 36 1 11 10
M  V30 37 2 12 17
M  V30 38 1 12 10
M  V30 39 1 28 2
M  V30 40 1 2 27
M  V30 41 1 22 47
M  V30 42 1 32 5
M  V30 43 1 17 43
M  V30 44 1 8 36
M  V30 45 1 8 9
M  V30 46 1 5 31
M  V30 47 1 5 6
M  V30 48 1 10 7
M  V30 49 1 10 39
M  V30 50 1 7 9
M  V30 51 1 7 6
M  V30 52 1 9 37
M  V30 53 1 9 38
M  V30 54 1 6 34
M  V30 55 1 6 33
M  V30 56 9 1 23
M  V30 57 9 4 23
M  V30 58 9 7 23
M  V30 59 9 13 23
M  V30 60 9 18 23
M  V30 END BOND
M  V30 END CTAB
M  END
