
     RDKit          3D

  0  0  0  0  0  0  0  0  0  0999 V3000
M  V30 BEGIN CTAB
M  V30 COUNTS 48 51 0 0 0
M  V30 BEGIN ATOM
M  V30 1 Fe -0.041370 -0.046640 -0.782620 0 CHG=1 RAD=2 VAL=5
M  V30 2 C -2.960800 -1.229900 -0.932500 0
M  V30 3 H -2.418100 -2.026900 -1.429700 0
M  V30 4 N -2.202800 -0.223300 -0.466200 0
M  V30 5 N -0.525900 1.403300 0.942500 0
M  V30 6 C -4.344700 -1.240200 -0.789100 0
M  V30 7 N 0.467000 -1.311900 1.124100 0
M  V30 8 N 2.131700 0.073300 -0.522600 0
M  V30 9 C -4.955100 -0.166800 -0.137900 0
M  V30 10 C -4.164400 0.878900 0.341200 0
M  V30 11 H -4.607500 1.727900 0.851900 0
M  V30 12 C -2.785300 0.823400 0.150700 0
M  V30 13 C -1.851400 1.937100 0.562800 0
M  V30 14 H -1.691800 2.582100 -0.307600 0
M  V30 15 H -2.289800 2.541900 1.369500 0
M  V30 16 C 0.470900 2.493700 0.978300 0
M  V30 17 H 0.559400 2.910000 -0.026200 0
M  V30 18 H 1.442200 2.093200 1.271900 0
M  V30 19 C -0.579400 0.651100 2.218400 0
M  V30 20 H -1.550200 0.153000 2.278700 0
M  V30 21 C 0.538900 -0.386500 2.280800 0
M  V30 22 H 1.508800 0.116000 2.251300 0
M  V30 23 C -0.530600 -2.380600 1.332300 0
M  V30 24 H -0.637200 -2.943800 0.403100 0
M  V30 25 H -1.497400 -1.940000 1.578300 0
M  V30 26 C 1.788400 -1.903900 0.825800 0
M  V30 27 H 1.625600 -2.693300 0.084000 0
M  V30 28 H 2.234500 -2.365700 1.718500 0
M  V30 29 C 2.721700 -0.879200 0.223400 0
M  V30 30 C 4.105600 -0.930300 0.374600 0
M  V30 31 H 4.556700 -1.701400 0.991100 0
M  V30 32 C 4.891000 0.018400 -0.282800 0
M  V30 33 C 4.271200 0.994100 -1.065600 0
M  V30 34 C 2.882800 0.988700 -1.158400 0
M  V30 35 H 2.322900 1.710400 -1.743400 0
M  V30 36 H -6.032300 -0.143600 -0.003000 0
M  V30 37 H -4.924900 -2.069800 -1.178400 0
M  V30 38 H 5.972000 -0.004100 -0.183300 0
M  V30 39 H 4.847900 1.745900 -1.593300 0
M  V30 40 H -0.229700 -3.057700 2.144500 0
M  V30 41 H 0.177200 3.279200 1.688900 0
M  V30 42 H -0.510400 1.332500 3.078300 0
M  V30 43 H 0.488500 -0.940000 3.229500 0
M  V30 44 O -0.061800 1.429600 -1.896000 0 RAD=2 VAL=1
M  V30 45 H -0.216900 1.301100 -2.845900 0
M  V30 46 N 0.039400 -1.670200 -1.842300 0
M  V30 47 N 0.577600 -1.854800 -2.920500 0 CHG=1 VAL=4
M  V30 48 N 1.081300 -2.065100 -3.931800 0 CHG=-1 VAL=2
M  V30 END ATOM
M  V30 BEGIN BOND
M  V30 1 2 48 47
M  V30 2 2 47 46
M  V30 3 1 45 44
M  V30 4 1 35 34
M  V30 5 1 39 33
M  V30 6 1 3 2
M  V30 7 1 37 6
M  V30 8 1 34 33
M  V30 9 2 34 8
M  V30 10 2 33 32
M  V30 11 2 2 6
M  V30 12 1 2 4
M  V30 13 1 6 9
M  V30 14 1 8 29
M  V30 15 2 4 12
M  V30 16 1 14 13
M  V30 17 1 32 38
M  V30 18 1 32 30
M  V30 19 1 9 36
M  V30 20 2 9 10
M  V30 21 1 17 16
M  V30 22 1 27 26
M  V30 23 1 12 10
M  V30 24 1 12 13
M  V30 25 2 29 30
M  V30 26 1 29 26
M  V30 27 1 10 11
M  V30 28 1 30 31
M  V30 29 1 24 23
M  V30 30 1 13 5
M  V30 31 1 13 15
M  V30 32 1 26 7
M  V30 33 1 26 28
M  V30 34 1 5 16
M  V30 35 1 5 19
M  V30 36 1 16 18
M  V30 37 1 16 41
M  V30 38 1 7 23
M  V30 39 1 7 21
M  V30 40 1 23 25
M  V30 41 1 23 40
M  V30 42 1 19 20
M  V30 43 1 19 21
M  V30 44 1 19 42
M  V30 45 1 22 21
M  V30 46 1 21 43
M  V30 47 1 1 46
M  V30 48 9 4 1
M  V30 49 9 5 1
M  V30 50 9 7 1
M  V30 51 9 8 1
M  V30 END BOND
M  V30 END CTAB
M  END
