
     RDKit          3D

  0  0  0  0  0  0  0  0  0  0999 V3000
M  V30 BEGIN CTAB
M  V30 COUNTS 53 59 0 0 0
M  V30 BEGIN ATOM
M  V30 1 N 2.026120 -1.479830 -0.318650 0
M  V30 2 C 3.076210 -0.676500 -1.021060 0
M  V30 3 C 3.269850 0.678960 -0.353390 0
M  V30 4 N 1.992450 1.434920 -0.162390 0
M  V30 5 C 1.401740 2.035610 -1.397430 0
M  V30 6 C 0.687730 1.046650 -2.341300 0
M  V30 7 N 0.043380 -0.115720 -1.646160 0
M  V30 8 C 1.241980 -2.311440 -1.268800 0
M  V30 9 C 0.425240 -1.440930 -2.245940 0
M  V30 10 C -1.434790 0.018330 -1.469130 0
M  V30 11 C -1.906620 -1.149530 -0.605340 0
M  V30 12 C -1.738060 1.284280 -0.679270 0
M  V30 13 N -0.980060 1.421180 0.431080 0
M  V30 14 C -1.246380 2.401780 1.309770 0
M  V30 15 C -2.267450 3.324380 1.085070 0
M  V30 16 C -3.025040 3.215740 -0.081620 0
M  V30 17 C -2.763920 2.170410 -0.977430 0
M  V30 18 N -1.111370 -1.389660 0.461600 0
M  V30 19 C -1.458780 -2.324240 1.363290 0
M  V30 20 C -2.618340 -3.083200 1.215460 0
M  V30 21 C -3.432660 -2.854790 0.105430 0
M  V30 22 C -3.074830 -1.866320 -0.820970 0
M  V30 23 Fe 0.586580 -0.063790 0.562710 0 CHG=2 VAL=6
M  V30 24 C 2.626760 -2.332970 0.745160 0
M  V30 25 C 2.247860 2.529200 0.822290 0
M  V30 26 H 2.795960 -0.559290 -2.066130 0
M  V30 27 H 4.027070 -1.221500 -1.014220 0
M  V30 28 H 3.985820 1.283340 -0.925360 0
M  V30 29 H 3.686390 0.531550 0.646250 0
M  V30 30 H 2.177680 2.571100 -1.960120 0
M  V30 31 H 0.685400 2.779910 -1.050720 0
M  V30 32 H 1.394600 0.652460 -3.069710 0
M  V30 33 H -0.060250 1.603140 -2.916930 0
M  V30 34 H 0.578890 -2.934790 -0.668300 0
M  V30 35 H 1.907730 -2.979940 -1.830370 0
M  V30 36 H -0.470720 -1.992100 -2.541440 0
M  V30 37 H 0.982900 -1.261130 -3.166000 0
M  V30 38 H -1.955490 0.026470 -2.433990 0
M  V30 39 H -0.629130 2.424730 2.201770 0
M  V30 40 H -2.460540 4.104860 1.813060 0
M  V30 41 H -3.820250 3.925090 -0.289390 0
M  V30 42 H -3.354220 2.046280 -1.879670 0
M  V30 43 H -0.790180 -2.442890 2.209620 0
M  V30 44 H -2.873400 -3.831140 1.958340 0
M  V30 45 H -4.340350 -3.432680 -0.039000 0
M  V30 46 H -3.695660 -1.660300 -1.687050 0
M  V30 47 H 3.212550 -1.711320 1.422270 0
M  V30 48 H 1.828610 -2.804270 1.321120 0
M  V30 49 H 3.266320 -3.105140 0.301470 0
M  V30 50 H 2.596610 2.098040 1.760150 0
M  V30 51 H 2.999540 3.224830 0.430340 0
M  V30 52 H 1.323090 3.074970 1.006420 0
M  V30 53 Cl 1.052540 -0.108280 2.715880 0
M  V30 END ATOM
M  V30 BEGIN BOND
M  V30 1 1 37 9
M  V30 2 1 32 6
M  V30 3 1 33 6
M  V30 4 1 36 9
M  V30 5 1 38 10
M  V30 6 1 6 7
M  V30 7 1 6 5
M  V30 8 1 9 7
M  V30 9 1 9 8
M  V30 10 1 26 2
M  V30 11 1 30 5
M  V30 12 1 42 17
M  V30 13 1 35 8
M  V30 14 1 46 22
M  V30 15 1 7 10
M  V30 16 1 10 12
M  V30 17 1 10 11
M  V30 18 1 5 31
M  V30 19 1 5 4
M  V30 20 1 8 34
M  V30 21 1 8 1
M  V30 22 1 2 27
M  V30 23 1 2 3
M  V30 24 1 2 1
M  V30 25 1 17 12
M  V30 26 2 17 16
M  V30 27 1 28 3
M  V30 28 1 22 11
M  V30 29 2 22 21
M  V30 30 2 12 13
M  V30 31 2 11 18
M  V30 32 1 3 4
M  V30 33 1 3 29
M  V30 34 1 1 24
M  V30 35 1 41 16
M  V30 36 1 4 25
M  V30 37 1 16 15
M  V30 38 1 45 21
M  V30 39 1 21 20
M  V30 40 1 49 24
M  V30 41 1 51 25
M  V30 42 1 13 14
M  V30 43 1 18 19
M  V30 44 1 23 53
M  V30 45 1 24 48
M  V30 46 1 24 47
M  V30 47 1 25 52
M  V30 48 1 25 50
M  V30 49 2 15 14
M  V30 50 1 15 40
M  V30 51 2 20 19
M  V30 52 1 20 44
M  V30 53 1 14 39
M  V30 54 1 19 43
M  V30 55 9 1 23
M  V30 56 9 4 23
M  V30 57 9 7 23
M  V30 58 9 13 23
M  V30 59 9 18 23
M  V30 END BOND
M  V30 END CTAB
M  END
