
     RDKit          3D

  0  0  0  0  0  0  0  0  0  0999 V3000
M  V30 BEGIN CTAB
M  V30 COUNTS 48 52 0 0 0
M  V30 BEGIN ATOM
M  V30 1 N 2.223870 0.779300 -0.006070 0
M  V30 2 C 3.160460 -0.391900 0.099510 0
M  V30 3 C 2.665410 -1.516350 -0.792480 0
M  V30 4 N 1.197270 -1.777090 -0.609590 0
M  V30 5 C 0.850400 -2.543330 0.627370 0
M  V30 6 C 0.910580 -1.683060 1.885130 0
M  V30 7 N 0.373160 -0.290940 1.642550 0
M  V30 8 C 2.110600 1.511590 1.295190 0
M  V30 9 C 1.229090 0.752940 2.316330 0
M  V30 10 C -1.067030 -0.196590 2.043850 0
M  V30 11 C -1.940650 -0.817390 0.983920 0
M  V30 12 N -1.459240 -0.709920 -0.276910 0
M  V30 13 C -2.204260 -1.099930 -1.327680 0
M  V30 14 C -3.469400 -1.651560 -1.150780 0
M  V30 15 C -3.963740 -1.804080 0.146230 0
M  V30 16 C -3.188630 -1.378520 1.229440 0
M  V30 17 Fe 0.364650 0.069420 -0.405400 0 CHG=2 VAL=6
M  V30 18 C 2.697940 1.713310 -1.072580 0
M  V30 19 C 0.744570 -2.573210 -1.792560 0
M  V30 20 H 3.228540 -0.695200 1.142090 0
M  V30 21 H 4.167590 -0.087670 -0.203850 0
M  V30 22 H 3.239610 -2.434950 -0.622210 0
M  V30 23 H 2.789720 -1.230280 -1.838350 0
M  V30 24 H 1.508320 -3.414500 0.735200 0
M  V30 25 H -0.163760 -2.917240 0.484040 0
M  V30 26 H 1.932420 -1.599270 2.247060 0
M  V30 27 H 0.340770 -2.165690 2.685750 0
M  V30 28 H 1.661980 2.478460 1.069380 0
M  V30 29 H 3.112500 1.698870 1.698940 0
M  V30 30 H 0.583460 1.472120 2.822150 0
M  V30 31 H 1.830040 0.276030 3.093550 0
M  V30 32 H -1.232780 -0.641040 3.031290 0
M  V30 33 H -1.751490 -0.956840 -2.301650 0
M  V30 34 H -4.047820 -1.956650 -2.016050 0
M  V30 35 H -4.942250 -2.243010 0.314780 0
M  V30 36 H -3.551290 -1.471290 2.248110 0
M  V30 37 H 2.799720 1.163720 -2.007210 0
M  V30 38 H 1.962270 2.505800 -1.208640 0
M  V30 39 H 3.659490 2.149770 -0.781150 0
M  V30 40 H 0.866320 -1.972720 -2.691660 0
M  V30 41 H 1.337130 -3.492070 -1.863930 0
M  V30 42 H -0.304850 -2.838100 -1.673960 0
M  V30 43 H -1.322160 0.865060 2.108590 0
M  V30 44 O 0.429400 0.209940 -2.172280 0
M  V30 45 H 0.095990 1.069820 -2.487990 0
M  V30 46 N -0.429110 1.790740 -0.228120 0
M  V30 47 C -1.021320 2.821400 -0.273310 0
M  V30 48 S -1.821330 4.221750 -0.314010 0
M  V30 END ATOM
M  V30 BEGIN BOND
M  V30 1 1 40 19
M  V30 2 1 45 44
M  V30 3 1 33 13
M  V30 4 1 44 17
M  V30 5 1 34 14
M  V30 6 1 37 18
M  V30 7 1 41 19
M  V30 8 1 23 3
M  V30 9 1 19 42
M  V30 10 1 19 4
M  V30 11 1 13 14
M  V30 12 2 13 12
M  V30 13 1 38 18
M  V30 14 2 14 15
M  V30 15 1 18 39
M  V30 16 1 18 1
M  V30 17 1 3 22
M  V30 18 1 3 4
M  V30 19 1 3 2
M  V30 20 1 4 5
M  V30 21 1 17 46
M  V30 22 2 48 47
M  V30 23 1 12 11
M  V30 24 2 47 46
M  V30 25 1 21 2
M  V30 26 1 1 2
M  V30 27 1 1 8
M  V30 28 1 2 20
M  V30 29 1 15 35
M  V30 30 1 15 16
M  V30 31 1 25 5
M  V30 32 1 5 24
M  V30 33 1 5 6
M  V30 34 2 11 16
M  V30 35 1 11 10
M  V30 36 1 28 8
M  V30 37 1 16 36
M  V30 38 1 8 29
M  V30 39 1 8 9
M  V30 40 1 7 6
M  V30 41 1 7 10
M  V30 42 1 7 9
M  V30 43 1 6 26
M  V30 44 1 6 27
M  V30 45 1 10 43
M  V30 46 1 10 32
M  V30 47 1 9 30
M  V30 48 1 9 31
M  V30 49 9 1 17
M  V30 50 9 4 17
M  V30 51 9 7 17
M  V30 52 9 12 17
M  V30 END BOND
M  V30 END CTAB
M  END
