
     RDKit          3D

  0  0  0  0  0  0  0  0  0  0999 V3000
M  V30 BEGIN CTAB
M  V30 COUNTS 53 59 0 0 0
M  V30 BEGIN ATOM
M  V30 1 N -2.079440 -1.462320 0.090350 0
M  V30 2 C -3.167520 -0.662310 0.734870 0
M  V30 3 C -3.314810 0.702480 0.072640 0
M  V30 4 N -2.019020 1.441440 -0.052760 0
M  V30 5 C -1.491180 2.045580 1.206900 0
M  V30 6 C -0.831810 1.050540 2.188250 0
M  V30 7 N -0.163840 -0.119380 1.528620 0
M  V30 8 C -1.359000 -2.305150 1.078600 0
M  V30 9 C -0.591310 -1.441520 2.103620 0
M  V30 10 C 1.321920 -0.003450 1.420340 0
M  V30 11 C 1.821890 -1.172640 0.571660 0
M  V30 12 C 1.680270 1.261970 0.650950 0
M  V30 13 N 0.983400 1.415030 -0.497080 0
M  V30 14 C 1.308060 2.398980 -1.352400 0
M  V30 15 C 2.328340 3.306290 -1.069500 0
M  V30 16 C 3.021840 3.180500 0.134730 0
M  V30 17 C 2.699650 2.133790 1.008450 0
M  V30 18 N 1.081400 -1.393320 -0.537810 0
M  V30 19 C 1.461870 -2.324300 -1.429570 0
M  V30 20 C 2.602510 -3.100030 -1.230050 0
M  V30 21 C 3.359470 -2.893080 -0.075820 0
M  V30 22 C 2.966890 -1.908650 0.840880 0
M  V30 23 Fe -0.596790 -0.056020 -0.712340 0 CHG=2 VAL=6
M  V30 24 C -2.600150 -2.283180 -1.037240 0
M  V30 25 C -2.189330 2.502300 -1.089840 0
M  V30 26 H -2.948440 -0.556540 1.795920 0
M  V30 27 H -4.118390 -1.203240 0.666210 0
M  V30 28 H -4.046630 1.311830 0.618380 0
M  V30 29 H -3.690640 0.571500 -0.945290 0
M  V30 30 H -2.291090 2.586790 1.728830 0
M  V30 31 H -0.752790 2.784420 0.896780 0
M  V30 32 H -1.578980 0.663860 2.879740 0
M  V30 33 H -0.110800 1.602950 2.801030 0
M  V30 34 H -0.667730 -2.932040 0.514650 0
M  V30 35 H -2.060080 -2.970210 1.599710 0
M  V30 36 H 0.280410 -2.001750 2.450680 0
M  V30 37 H -1.200350 -1.258380 2.989830 0
M  V30 38 H 1.800920 -0.005940 2.406680 0
M  V30 39 H 0.737140 2.441760 -2.274370 0
M  V30 40 H 2.568990 4.089060 -1.780670 0
M  V30 41 H 3.813790 3.878200 0.389180 0
M  V30 42 H 3.238870 1.997400 1.940410 0
M  V30 43 H 0.834690 -2.428780 -2.309480 0
M  V30 44 H 2.886880 -3.844700 -1.965510 0
M  V30 45 H 4.250190 -3.485240 0.110540 0
M  V30 46 H 3.544080 -1.720370 1.740530 0
M  V30 47 H -3.095350 -1.634220 -1.760100 0
M  V30 48 H -1.762960 -2.773270 -1.538050 0
M  V30 49 H -3.302150 -3.041850 -0.671910 0
M  V30 50 H -2.397640 2.027800 -2.049980 0
M  V30 51 H -3.009670 3.177610 -0.819680 0
M  V30 52 H -1.269730 3.080680 -1.171840 0
M  V30 53 F -0.991000 -0.111080 -2.422810 0
M  V30 END ATOM
M  V30 BEGIN BOND
M  V30 1 1 53 23
M  V30 2 1 43 19
M  V30 3 1 39 14
M  V30 4 1 50 25
M  V30 5 1 44 20
M  V30 6 1 40 15
M  V30 7 1 47 24
M  V30 8 1 48 24
M  V30 9 1 19 20
M  V30 10 2 19 18
M  V30 11 1 14 15
M  V30 12 2 14 13
M  V30 13 2 20 21
M  V30 14 1 52 25
M  V30 15 1 25 51
M  V30 16 1 25 4
M  V30 17 2 15 16
M  V30 18 1 24 49
M  V30 19 1 24 1
M  V30 20 1 29 3
M  V30 21 1 18 11
M  V30 22 1 13 12
M  V30 23 1 21 45
M  V30 24 1 21 22
M  V30 25 1 4 3
M  V30 26 1 4 5
M  V30 27 1 3 28
M  V30 28 1 3 2
M  V30 29 1 1 2
M  V30 30 1 1 8
M  V30 31 1 16 41
M  V30 32 1 16 17
M  V30 33 1 34 8
M  V30 34 2 11 22
M  V30 35 1 11 10
M  V30 36 2 12 17
M  V30 37 1 12 10
M  V30 38 1 27 2
M  V30 39 1 2 26
M  V30 40 1 22 46
M  V30 41 1 31 5
M  V30 42 1 17 42
M  V30 43 1 8 35
M  V30 44 1 8 9
M  V30 45 1 5 30
M  V30 46 1 5 6
M  V30 47 1 10 7
M  V30 48 1 10 38
M  V30 49 1 7 9
M  V30 50 1 7 6
M  V30 51 1 9 36
M  V30 52 1 9 37
M  V30 53 1 6 33
M  V30 54 1 6 32
M  V30 55 9 1 23
M  V30 56 9 4 23
M  V30 57 9 7 23
M  V30 58 9 13 23
M  V30 59 9 18 23
M  V30 END BOND
M  V30 END CTAB
M  END
