
     RDKit          3D

  0  0  0  0  0  0  0  0  0  0999 V3000
M  V30 BEGIN CTAB
M  V30 COUNTS 46 50 0 0 0
M  V30 BEGIN ATOM
M  V30 1 Fe -0.012450 -0.126050 -0.511010 0 CHG=1 VAL=6
M  V30 2 C 2.865060 0.517380 -1.450830 0
M  V30 3 H 2.300250 0.652540 -2.366400 0
M  V30 4 N 2.124870 0.227670 -0.365980 0
M  V30 5 N 0.452800 0.171570 1.763470 0
M  V30 6 C 4.249740 0.625090 -1.388100 0
M  V30 7 N -0.599490 2.044210 -0.187280 0
M  V30 8 N -2.195220 -0.172610 -0.166630 0
M  V30 9 C 4.879320 0.426670 -0.157530 0
M  V30 10 C 4.106070 0.123810 0.963950 0
M  V30 11 H 4.564690 -0.037560 1.934360 0
M  V30 12 C 2.724210 0.020730 0.821620 0
M  V30 13 C 1.810960 -0.385570 1.953650 0
M  V30 14 H 1.721280 -1.477150 1.941090 0
M  V30 15 H 2.231820 -0.090200 2.925410 0
M  V30 16 C -0.513440 -0.535020 2.631540 0
M  V30 17 H -0.551160 -1.584170 2.332890 0
M  V30 18 H -1.507230 -0.105350 2.500800 0
M  V30 19 C 0.446290 1.635800 2.016200 0
M  V30 20 H 1.402180 2.041570 1.676430 0
M  V30 21 C -0.695290 2.315570 1.267830 0
M  V30 22 H -1.653910 1.929890 1.622450 0
M  V30 23 C 0.369690 2.934750 -0.860940 0
M  V30 24 H 0.493280 2.591920 -1.889110 0
M  V30 25 H 1.335290 2.875980 -0.357710 0
M  V30 26 C -1.917910 2.134700 -0.852740 0
M  V30 27 H -1.734510 2.041390 -1.927960 0
M  V30 28 H -2.394560 3.106360 -0.661690 0
M  V30 29 C -2.814580 0.997660 -0.427430 0
M  V30 30 C -4.199220 1.126560 -0.347620 0
M  V30 31 H -4.665540 2.084930 -0.552750 0
M  V30 32 C -4.964660 0.010900 -0.006540 0
M  V30 33 C -4.320100 -1.198950 0.251770 0
M  V30 34 C -2.932620 -1.248940 0.161270 0
M  V30 35 H -2.376730 -2.161510 0.342090 0
M  V30 36 H 5.958650 0.506900 -0.071170 0
M  V30 37 H 4.817010 0.858370 -2.282490 0
M  V30 38 H -6.045770 0.087220 0.058530 0
M  V30 39 H -4.875420 -2.091530 0.518360 0
M  V30 40 H 0.021060 3.976590 -0.850300 0
M  V30 41 H -0.226320 -0.460480 3.689740 0
M  V30 42 H 0.369630 1.843590 3.092690 0
M  V30 43 H -0.685810 3.396980 1.462790 0
M  V30 44 O -0.067480 0.230930 -2.315270 0
M  V30 45 H -0.116610 -0.547840 -2.895660 0
M  V30 46 Br 0.269720 -2.597470 -0.377010 0
M  V30 END ATOM
M  V30 BEGIN BOND
M  V30 1 1 45 44
M  V30 2 1 3 2
M  V30 3 1 44 1
M  V30 4 1 37 6
M  V30 5 1 27 26
M  V30 6 1 24 23
M  V30 7 2 2 6
M  V30 8 1 2 4
M  V30 9 1 6 9
M  V30 10 1 23 40
M  V30 11 1 23 25
M  V30 12 1 23 7
M  V30 13 1 26 28
M  V30 14 1 26 29
M  V30 15 1 26 7
M  V30 16 1 31 30
M  V30 17 1 1 46
M  V30 18 1 29 30
M  V30 19 2 29 8
M  V30 20 2 4 12
M  V30 21 2 30 32
M  V30 22 1 7 21
M  V30 23 1 8 34
M  V30 24 1 9 36
M  V30 25 2 9 10
M  V30 26 1 32 38
M  V30 27 1 32 33
M  V30 28 2 34 33
M  V30 29 1 34 35
M  V30 30 1 33 39
M  V30 31 1 12 10
M  V30 32 1 12 13
M  V30 33 1 10 11
M  V30 34 1 21 43
M  V30 35 1 21 22
M  V30 36 1 21 19
M  V30 37 1 20 19
M  V30 38 1 5 13
M  V30 39 1 5 19
M  V30 40 1 5 16
M  V30 41 1 14 13
M  V30 42 1 13 15
M  V30 43 1 19 42
M  V30 44 1 17 16
M  V30 45 1 18 16
M  V30 46 1 16 41
M  V30 47 9 4 1
M  V30 48 9 5 1
M  V30 49 9 7 1
M  V30 50 9 8 1
M  V30 END BOND
M  V30 END CTAB
M  END
