
     RDKit          3D

  0  0  0  0  0  0  0  0  0  0999 V3000
M  V30 BEGIN CTAB
M  V30 COUNTS 46 50 0 0 0
M  V30 BEGIN ATOM
M  V30 1 N -2.299960 -0.238050 -0.500270 0
M  V30 2 C -2.844500 0.317040 0.785640 0
M  V30 3 C -2.060850 1.555830 1.195930 0
M  V30 4 N -0.572600 1.355280 1.096380 0
M  V30 5 C 0.058560 0.594830 2.224650 0
M  V30 6 C -0.237750 -0.898890 2.159900 0
M  V30 7 N -0.221330 -1.412810 0.735890 0
M  V30 8 C -2.366280 -1.734500 -0.546070 0
M  V30 9 C -1.383150 -2.351550 0.461760 0
M  V30 10 C 1.092890 -2.051690 0.375280 0
M  V30 11 C 2.132560 -0.994100 0.127070 0
M  V30 12 N 1.647440 0.156410 -0.394990 0
M  V30 13 C 2.480410 1.129330 -0.807350 0
M  V30 14 C 3.859110 0.997280 -0.677010 0
M  V30 15 C 4.374840 -0.167630 -0.105230 0
M  V30 16 C 3.498790 -1.178430 0.302440 0
M  V30 17 Fe -0.324340 0.193210 -0.572050 0 CHG=2 VAL=6
M  V30 18 C -3.013570 0.332700 -1.683430 0
M  V30 19 C 0.069050 2.706640 1.032760 0
M  V30 20 H -2.804760 -0.458510 1.547860 0
M  V30 21 H -3.900580 0.574660 0.654620 0
M  V30 22 H -2.331710 1.870680 2.210320 0
M  V30 23 H -2.297730 2.376570 0.516480 0
M  V30 24 H -0.271740 1.006790 3.185750 0
M  V30 25 H 1.132050 0.765270 2.143200 0
M  V30 26 H -1.212070 -1.117020 2.591440 0
M  V30 27 H 0.498250 -1.445750 2.757030 0
M  V30 28 H -2.097220 -2.023890 -1.559300 0
M  V30 29 H -3.393430 -2.061360 -0.346220 0
M  V30 30 H -1.001730 -3.291210 0.059800 0
M  V30 31 H -1.865700 -2.589680 1.410620 0
M  V30 32 H 1.391160 -2.769850 1.145710 0
M  V30 33 H 2.013910 2.004520 -1.243190 0
M  V30 34 H 4.508570 1.794810 -1.021370 0
M  V30 35 H 5.446360 -0.293800 0.015310 0
M  V30 36 H 3.870780 -2.101640 0.734940 0
M  V30 37 H -2.983180 1.420640 -1.633020 0
M  V30 38 H -2.511460 -0.007940 -2.589230 0
M  V30 39 H -4.051910 -0.015710 -1.684290 0
M  V30 40 H -0.287790 3.234530 0.150270 0
M  V30 41 H -0.185810 3.270550 1.936730 0
M  V30 42 H 1.150520 2.593710 0.974530 0
M  V30 43 H 0.937960 -2.587460 -0.564700 0
M  V30 44 O -0.420180 1.636420 -1.538450 0
M  V30 45 H -0.345310 1.407250 -2.488390 0
M  V30 46 F -0.160980 -0.915310 -1.929030 0
M  V30 END ATOM
M  V30 BEGIN BOND
M  V30 1 1 38 18
M  V30 2 1 45 44
M  V30 3 1 46 17
M  V30 4 1 39 18
M  V30 5 1 18 37
M  V30 6 1 18 1
M  V30 7 1 28 8
M  V30 8 1 44 17
M  V30 9 1 33 13
M  V30 10 1 34 14
M  V30 11 1 13 14
M  V30 12 2 13 12
M  V30 13 2 14 15
M  V30 14 1 43 10
M  V30 15 1 8 1
M  V30 16 1 8 29
M  V30 17 1 8 9
M  V30 18 1 1 2
M  V30 19 1 12 11
M  V30 20 1 15 35
M  V30 21 1 15 16
M  V30 22 1 30 9
M  V30 23 2 11 16
M  V30 24 1 11 10
M  V30 25 1 40 19
M  V30 26 1 16 36
M  V30 27 1 10 7
M  V30 28 1 10 32
M  V30 29 1 9 7
M  V30 30 1 9 31
M  V30 31 1 23 3
M  V30 32 1 21 2
M  V30 33 1 7 6
M  V30 34 1 2 3
M  V30 35 1 2 20
M  V30 36 1 42 19
M  V30 37 1 19 4
M  V30 38 1 19 41
M  V30 39 1 4 3
M  V30 40 1 4 5
M  V30 41 1 3 22
M  V30 42 1 25 5
M  V30 43 1 6 5
M  V30 44 1 6 26
M  V30 45 1 6 27
M  V30 46 1 5 24
M  V30 47 9 1 17
M  V30 48 9 4 17
M  V30 49 9 7 17
M  V30 50 9 12 17
M  V30 END BOND
M  V30 END CTAB
M  END
