
     RDKit          3D

  0  0  0  0  0  0  0  0  0  0999 V3000
M  V30 BEGIN CTAB
M  V30 COUNTS 46 50 0 0 0
M  V30 BEGIN ATOM
M  V30 1 N -2.331810 -0.073330 -0.034880 0
M  V30 2 C -2.818490 1.348020 0.116490 0
M  V30 3 C -1.936180 2.303860 -0.665950 0
M  V30 4 N -0.477090 2.069530 -0.412880 0
M  V30 5 C 0.032740 2.524040 0.917020 0
M  V30 6 C -0.375550 1.585420 2.042110 0
M  V30 7 N -0.221980 0.132340 1.641470 0
M  V30 8 C -2.527350 -0.852480 1.239160 0
M  V30 9 C -1.339540 -0.701740 2.224260 0
M  V30 10 C 1.138040 -0.387150 2.031500 0
M  V30 11 C 2.150850 -0.037850 0.976460 0
M  V30 12 N 1.650670 0.085610 -0.275910 0
M  V30 13 C 2.474450 0.229900 -1.332460 0
M  V30 14 C 3.853070 0.288270 -1.165910 0
M  V30 15 C 4.383260 0.200720 0.123470 0
M  V30 16 C 3.519400 0.035910 1.209370 0
M  V30 17 Fe -0.318460 -0.006650 -0.420730 0 CHG=2 VAL=6
M  V30 18 C -3.087230 -0.734330 -1.149230 0
M  V30 19 C 0.296660 2.755570 -1.488560 0
M  V30 20 H -2.854550 1.598670 1.173580 0
M  V30 21 H -3.847140 1.415780 -0.251310 0
M  V30 22 H -2.194450 3.344970 -0.437150 0
M  V30 23 H -2.082610 2.146550 -1.736020 0
M  V30 24 H -0.313940 3.543610 1.126220 0
M  V30 25 H 1.120140 2.556560 0.837470 0
M  V30 26 H -1.407490 1.746450 2.340040 0
M  V30 27 H 0.234620 1.783210 2.928550 0
M  V30 28 H -2.615140 -1.901150 0.960150 0
M  V30 29 H -3.477080 -0.547370 1.690900 0
M  V30 30 H -0.940440 -1.693440 2.429920 0
M  V30 31 H -1.645460 -0.263680 3.178500 0
M  V30 32 H 1.419300 -0.019910 3.023240 0
M  V30 33 H 1.997380 0.299240 -2.301870 0
M  V30 34 H 4.492300 0.399840 -2.035040 0
M  V30 35 H 5.456010 0.250560 0.282480 0
M  V30 36 H 3.901600 -0.053740 2.221220 0
M  V30 37 H -3.002500 -0.121220 -2.046170 0
M  V30 38 H -2.664010 -1.719840 -1.337290 0
M  V30 39 H -4.139460 -0.833230 -0.861670 0
M  V30 40 H 0.019230 2.334570 -2.453860 0
M  V30 41 H 0.070280 3.827950 -1.471340 0
M  V30 42 H 1.363160 2.613400 -1.321340 0
M  V30 43 H 1.075730 -1.477570 2.078660 0
M  V30 44 O -0.444830 0.076710 -2.158060 0
M  V30 45 H -0.446340 -0.794430 -2.602960 0
M  V30 46 Br -0.074400 -2.449270 -0.402930 0
M  V30 END ATOM
M  V30 BEGIN BOND
M  V30 1 1 45 44
M  V30 2 1 40 19
M  V30 3 1 33 13
M  V30 4 1 44 17
M  V30 5 1 37 18
M  V30 6 1 34 14
M  V30 7 1 23 3
M  V30 8 1 19 41
M  V30 9 1 19 42
M  V30 10 1 19 4
M  V30 11 1 38 18
M  V30 12 1 13 14
M  V30 13 2 13 12
M  V30 14 2 14 15
M  V30 15 1 18 39
M  V30 16 1 18 1
M  V30 17 1 3 22
M  V30 18 1 3 4
M  V30 19 1 3 2
M  V30 20 1 17 46
M  V30 21 1 4 5
M  V30 22 1 12 11
M  V30 23 1 21 2
M  V30 24 1 1 2
M  V30 25 1 1 8
M  V30 26 1 2 20
M  V30 27 1 15 35
M  V30 28 1 15 16
M  V30 29 1 25 5
M  V30 30 1 5 24
M  V30 31 1 5 6
M  V30 32 1 28 8
M  V30 33 2 11 16
M  V30 34 1 11 10
M  V30 35 1 16 36
M  V30 36 1 8 29
M  V30 37 1 8 9
M  V30 38 1 7 10
M  V30 39 1 7 6
M  V30 40 1 7 9
M  V30 41 1 10 43
M  V30 42 1 10 32
M  V30 43 1 6 26
M  V30 44 1 6 27
M  V30 45 1 9 30
M  V30 46 1 9 31
M  V30 47 9 1 17
M  V30 48 9 4 17
M  V30 49 9 7 17
M  V30 50 9 12 17
M  V30 END BOND
M  V30 END CTAB
M  END
