
     RDKit          3D

  0  0  0  0  0  0  0  0  0  0999 V3000
M  V30 BEGIN CTAB
M  V30 COUNTS 46 50 0 0 0
M  V30 BEGIN ATOM
M  V30 1 Fe 0.004370 -0.208050 -0.635100 0 CHG=1 VAL=6
M  V30 2 C 2.896760 0.640330 -1.370410 0
M  V30 3 H 2.333780 1.052940 -2.200190 0
M  V30 4 N 2.151900 0.058220 -0.414490 0
M  V30 5 N 0.483350 -0.582880 1.622340 0
M  V30 6 C 4.283800 0.695970 -1.288980 0
M  V30 7 N -0.535220 1.791570 0.314740 0
M  V30 8 N -2.173060 -0.300310 -0.308500 0
M  V30 9 C 4.909840 0.128880 -0.177070 0
M  V30 10 C 4.131260 -0.477180 0.809890 0
M  V30 11 H 4.587270 -0.928210 1.685510 0
M  V30 12 C 2.747280 -0.504700 0.653440 0
M  V30 13 C 1.824850 -1.207580 1.621070 0
M  V30 14 H 1.701790 -2.241190 1.280820 0
M  V30 15 H 2.256860 -1.230520 2.631810 0
M  V30 16 C -0.500770 -1.492020 2.246960 0
M  V30 17 H -0.569200 -2.399470 1.644700 0
M  V30 18 H -1.482080 -1.016480 2.263330 0
M  V30 19 C 0.513580 0.740810 2.293830 0
M  V30 20 H 1.477680 1.207660 2.078120 0
M  V30 21 C -0.615340 1.632910 1.787520 0
M  V30 22 H -1.580950 1.181780 2.027690 0
M  V30 23 C 0.449160 2.820120 -0.084260 0
M  V30 24 H 0.559050 2.786670 -1.169030 0
M  V30 25 H 1.416130 2.599400 0.368860 0
M  V30 26 C -1.856320 2.099150 -0.277150 0
M  V30 27 H -1.682080 2.326240 -1.333850 0
M  V30 28 H -2.311830 2.978540 0.199310 0
M  V30 29 C -2.773080 0.902630 -0.199360 0
M  V30 30 C -4.155000 1.020280 -0.070690 0
M  V30 31 H -4.607870 2.001770 0.027270 0
M  V30 32 C -4.935440 -0.136670 -0.075290 0
M  V30 33 C -4.309430 -1.377010 -0.202660 0
M  V30 34 C -2.923200 -1.416340 -0.316740 0
M  V30 35 H -2.377290 -2.346280 -0.426140 0
M  V30 36 H 5.990720 0.158090 -0.078450 0
M  V30 37 H 4.855330 1.172180 -2.078130 0
M  V30 38 H -6.014840 -0.069210 0.020730 0
M  V30 39 H -4.878480 -2.300170 -0.214340 0
M  V30 40 H 0.123970 3.820980 0.231520 0
M  V30 41 H -0.209290 -1.748510 3.275140 0
M  V30 42 H 0.444820 0.626200 3.384790 0
M  V30 43 H -0.578870 2.611390 2.286290 0
M  V30 44 O -0.043430 0.673070 -2.252910 0
M  V30 45 H -0.116680 0.101010 -3.035920 0
M  V30 46 Cl 0.192900 -2.441400 -1.113720 0
M  V30 END ATOM
M  V30 BEGIN BOND
M  V30 1 1 45 44
M  V30 2 1 44 1
M  V30 3 1 3 2
M  V30 4 1 37 6
M  V30 5 2 2 6
M  V30 6 1 2 4
M  V30 7 1 27 26
M  V30 8 1 6 9
M  V30 9 1 24 23
M  V30 10 1 46 1
M  V30 11 1 35 34
M  V30 12 2 4 12
M  V30 13 2 34 8
M  V30 14 1 34 33
M  V30 15 1 8 29
M  V30 16 1 26 29
M  V30 17 1 26 28
M  V30 18 1 26 7
M  V30 19 1 39 33
M  V30 20 2 33 32
M  V30 21 2 29 30
M  V30 22 1 9 36
M  V30 23 2 9 10
M  V30 24 1 23 40
M  V30 25 1 23 7
M  V30 26 1 23 25
M  V30 27 1 32 30
M  V30 28 1 32 38
M  V30 29 1 30 31
M  V30 30 1 7 21
M  V30 31 1 12 10
M  V30 32 1 12 13
M  V30 33 1 10 11
M  V30 34 1 14 13
M  V30 35 1 13 5
M  V30 36 1 13 15
M  V30 37 1 5 16
M  V30 38 1 5 19
M  V30 39 1 17 16
M  V30 40 1 21 22
M  V30 41 1 21 43
M  V30 42 1 21 19
M  V30 43 1 20 19
M  V30 44 1 16 18
M  V30 45 1 16 41
M  V30 46 1 19 42
M  V30 47 9 4 1
M  V30 48 9 5 1
M  V30 49 9 7 1
M  V30 50 9 8 1
M  V30 END BOND
M  V30 END CTAB
M  END
