
     RDKit          3D

  0  0  0  0  0  0  0  0  0  0999 V3000
M  V30 BEGIN CTAB
M  V30 COUNTS 46 50 0 0 0
M  V30 BEGIN ATOM
M  V30 1 Fe -0.012530 -0.125830 -0.510940 0 CHG=1 VAL=6
M  V30 2 C -2.932170 -1.249000 0.161050 0
M  V30 3 H -2.376070 -2.161480 0.341710 0
M  V30 4 N -2.194970 -0.172490 -0.166670 0
M  V30 5 N -0.599460 2.044300 -0.187260 0
M  V30 6 C -4.319680 -1.199320 0.251510 0
M  V30 7 N 0.453090 0.172050 1.763510 0
M  V30 8 N 2.124810 0.227280 -0.366060 0
M  V30 9 C -4.964490 0.010420 -0.006620 0
M  V30 10 C -4.199250 1.126320 -0.347450 0
M  V30 11 H -4.665780 2.084630 -0.552360 0
M  V30 12 C -2.814610 0.997750 -0.427230 0
M  V30 13 C -1.918180 2.135150 -0.852120 0
M  V30 14 H -1.735310 2.042810 -1.927510 0
M  V30 15 H -2.394830 3.106610 -0.660100 0
M  V30 16 C 0.369780 2.934400 -0.861670 0
M  V30 17 H 0.492190 2.591300 -1.889900 0
M  V30 18 H 1.335720 2.874980 -0.359210 0
M  V30 19 C -0.694680 2.316040 1.267760 0
M  V30 20 H -1.653160 1.930330 1.622800 0
M  V30 21 C 0.447020 1.636300 2.015980 0
M  V30 22 H 1.402930 2.041750 1.675880 0
M  V30 23 C -0.513290 -0.534240 2.631620 0
M  V30 24 H -0.551170 -1.583420 2.333060 0
M  V30 25 H -1.507020 -0.104470 2.500770 0
M  V30 26 C 1.811090 -0.385440 1.953640 0
M  V30 27 H 1.721150 -1.477000 1.941080 0
M  V30 28 H 2.232120 -0.090180 2.925360 0
M  V30 29 C 2.724350 0.020570 0.821520 0
M  V30 30 C 4.106210 0.123640 0.963600 0
M  V30 31 H 4.565000 -0.037540 1.933960 0
M  V30 32 C 4.879310 0.426220 -0.158080 0
M  V30 33 C 4.249560 0.624370 -1.388590 0
M  V30 34 C 2.864850 0.516700 -1.451100 0
M  V30 35 H 2.299880 0.651660 -2.366600 0
M  V30 36 H -6.045610 0.086500 0.058390 0
M  V30 37 H -4.874830 -2.092070 0.517910 0
M  V30 38 H 5.958650 0.506450 -0.071870 0
M  V30 39 H 4.816700 0.857450 -2.283120 0
M  V30 40 H -0.226240 -0.459630 3.689840 0
M  V30 41 H 0.021700 3.976410 -0.850760 0
M  V30 42 H -0.685250 3.397480 1.462470 0
M  V30 43 H 0.370640 1.844360 3.092430 0
M  V30 44 O -0.067850 0.230880 -2.315250 0
M  V30 45 H -0.118320 -0.547580 -2.895920 0
M  V30 46 Br 0.269330 -2.597490 -0.376550 0
M  V30 END ATOM
M  V30 BEGIN BOND
M  V30 1 1 45 44
M  V30 2 1 35 34
M  V30 3 1 44 1
M  V30 4 1 39 33
M  V30 5 1 14 13
M  V30 6 1 17 16
M  V30 7 1 34 33
M  V30 8 2 34 8
M  V30 9 2 33 32
M  V30 10 1 16 41
M  V30 11 1 16 18
M  V30 12 1 16 5
M  V30 13 1 13 15
M  V30 14 1 13 12
M  V30 15 1 13 5
M  V30 16 1 11 10
M  V30 17 1 1 46
M  V30 18 2 12 10
M  V30 19 1 12 4
M  V30 20 1 8 29
M  V30 21 1 10 9
M  V30 22 1 5 19
M  V30 23 2 4 2
M  V30 24 1 32 38
M  V30 25 1 32 30
M  V30 26 1 9 36
M  V30 27 2 9 6
M  V30 28 1 2 6
M  V30 29 1 2 3
M  V30 30 1 6 37
M  V30 31 2 29 30
M  V30 32 1 29 26
M  V30 33 1 30 31
M  V30 34 1 19 42
M  V30 35 1 19 20
M  V30 36 1 19 21
M  V30 37 1 22 21
M  V30 38 1 7 26
M  V30 39 1 7 21
M  V30 40 1 7 23
M  V30 41 1 27 26
M  V30 42 1 26 28
M  V30 43 1 21 43
M  V30 44 1 24 23
M  V30 45 1 25 23
M  V30 46 1 23 40
M  V30 47 9 4 1
M  V30 48 9 5 1
M  V30 49 9 7 1
M  V30 50 9 8 1
M  V30 END BOND
M  V30 END CTAB
M  END
