
     RDKit          3D

  0  0  0  0  0  0  0  0  0  0999 V3000
M  V30 BEGIN CTAB
M  V30 COUNTS 55 60 0 0 0
M  V30 BEGIN ATOM
M  V30 1 N 1.983600 -1.313000 -0.830600 0
M  V30 2 C 2.871100 -0.404900 -1.621500 0
M  V30 3 C 3.096600 0.917900 -0.898000 0
M  V30 4 N 1.830600 1.576100 -0.451500 0
M  V30 5 C 1.029200 2.224500 -1.531900 0
M  V30 6 C 0.229700 1.259400 -2.431600 0
M  V30 7 N -0.246500 0.017900 -1.738200 0
M  V30 8 C 1.105200 -2.122900 -1.712500 0
M  V30 9 C 0.104800 -1.238100 -2.486400 0
M  V30 10 C -1.687100 0.055100 -1.347900 0
M  V30 11 C -1.981200 -1.194600 -0.521400 0
M  V30 12 C -1.937200 1.247800 -0.434700 0
M  V30 13 N -1.041600 1.361400 0.570100 0
M  V30 14 C -1.230800 2.285500 1.526100 0
M  V30 15 C -2.312100 3.165000 1.497000 0
M  V30 16 C -3.218800 3.075400 0.440200 0
M  V30 17 C -3.033900 2.093400 -0.540600 0
M  V30 18 N -1.032700 -1.476700 0.398700 0
M  V30 19 C -1.212600 -2.505000 1.244600 0
M  V30 20 C -2.348600 -3.310200 1.193700 0
M  V30 21 C -3.323900 -3.030600 0.235200 0
M  V30 22 C -3.139900 -1.951100 -0.637100 0
M  V30 23 Fe 0.617340 -0.047800 0.369210 0 CHG=2 VAL=5
M  V30 24 C 2.780900 -2.193400 0.062900 0
M  V30 25 C 2.179300 2.605400 0.569000 0
M  V30 26 H 2.428300 -0.238700 -2.601600 0
M  V30 27 H 3.839000 -0.888000 -1.799400 0
M  V30 28 H 3.678400 1.599600 -1.532500 0
M  V30 29 H 3.681100 0.735700 0.007600 0
M  V30 30 H 1.679000 2.845200 -2.163400 0
M  V30 31 H 0.336800 2.897100 -1.026100 0
M  V30 32 H 0.838200 0.957700 -3.282800 0
M  V30 33 H -0.621000 1.809000 -2.850200 0
M  V30 34 H 0.571800 -2.823400 -1.068900 0
M  V30 35 H 1.704800 -2.712200 -2.419100 0
M  V30 36 H -0.796600 -1.822800 -2.685500 0
M  V30 37 H 0.504300 -0.964900 -3.464100 0
M  V30 38 H -2.341300 0.099600 -2.227300 0
M  V30 39 H -0.495900 2.304900 2.324100 0
M  V30 40 H -2.435500 3.898700 2.286100 0
M  V30 41 H -4.066100 3.751800 0.382400 0
M  V30 42 H -3.733700 1.986400 -1.363400 0
M  V30 43 H -0.422400 -2.671400 1.969500 0
M  V30 44 H -2.461800 -4.133600 1.890600 0
M  V30 45 H -4.218900 -3.641200 0.166100 0
M  V30 46 H -3.883900 -1.706500 -1.388600 0
M  V30 47 H 3.431800 -1.580200 0.687800 0
M  V30 48 H 2.105200 -2.752800 0.713300 0
M  V30 49 H 3.389900 -2.895700 -0.519200 0
M  V30 50 H 2.678200 2.123300 1.410300 0
M  V30 51 H 2.839200 3.369600 0.140400 0
M  V30 52 H 1.269200 3.086300 0.926900 0
M  V30 53 N 1.301100 -0.202100 2.075800 0
M  V30 54 N 1.729200 -0.405800 3.193200 0 CHG=1 VAL=4
M  V30 55 N 2.137100 -0.595300 4.247800 0 CHG=-1 VAL=2
M  V30 END ATOM
M  V30 BEGIN BOND
M  V30 1 1 37 9
M  V30 2 1 32 6
M  V30 3 1 33 6
M  V30 4 1 36 9
M  V30 5 1 26 2
M  V30 6 1 9 7
M  V30 7 1 9 8
M  V30 8 1 6 7
M  V30 9 1 6 5
M  V30 10 1 35 8
M  V30 11 1 38 10
M  V30 12 1 30 5
M  V30 13 1 27 2
M  V30 14 1 7 10
M  V30 15 1 8 34
M  V30 16 1 8 1
M  V30 17 1 2 3
M  V30 18 1 2 1
M  V30 19 1 28 3
M  V30 20 1 5 31
M  V30 21 1 5 4
M  V30 22 1 46 22
M  V30 23 1 42 17
M  V30 24 1 10 11
M  V30 25 1 10 12
M  V30 26 1 3 4
M  V30 27 1 3 29
M  V30 28 1 1 24
M  V30 29 1 22 11
M  V30 30 2 22 21
M  V30 31 1 17 12
M  V30 32 2 17 16
M  V30 33 2 11 18
M  V30 34 1 49 24
M  V30 35 1 4 25
M  V30 36 2 12 13
M  V30 37 1 24 47
M  V30 38 1 24 48
M  V30 39 1 51 25
M  V30 40 1 45 21
M  V30 41 1 21 20
M  V30 42 1 41 16
M  V30 43 1 18 19
M  V30 44 1 16 15
M  V30 45 1 25 52
M  V30 46 1 25 50
M  V30 47 1 13 14
M  V30 48 2 20 19
M  V30 49 1 20 44
M  V30 50 1 19 43
M  V30 51 2 15 14
M  V30 52 1 15 40
M  V30 53 1 14 39
M  V30 54 2 53 54
M  V30 55 2 54 55
M  V30 56 1 23 53
M  V30 57 9 1 23
M  V30 58 9 4 23
M  V30 59 9 13 23
M  V30 60 9 18 23
M  V30 END BOND
M  V30 END CTAB
M  END
