
     RDKit          3D

  0  0  0  0  0  0  0  0  0  0999 V3000
M  V30 BEGIN CTAB
M  V30 COUNTS 46 50 0 0 0
M  V30 BEGIN ATOM
M  V30 1 N -2.307880 -0.206720 -0.480700 0
M  V30 2 C -2.833900 0.401300 0.789330 0
M  V30 3 C -2.006350 1.619080 1.177860 0
M  V30 4 N -0.527380 1.366330 1.090020 0
M  V30 5 C 0.061980 0.599340 2.228760 0
M  V30 6 C -0.291890 -0.880040 2.159790 0
M  V30 7 N -0.231630 -1.406810 0.737850 0
M  V30 8 C -2.432890 -1.700780 -0.484000 0
M  V30 9 C -1.389480 -2.350640 0.448050 0
M  V30 10 C 1.097810 -2.051160 0.442120 0
M  V30 11 C 2.133400 -0.995840 0.160970 0
M  V30 12 N 1.640920 0.117060 -0.433750 0
M  V30 13 C 2.459120 1.086190 -0.886560 0
M  V30 14 C 3.837750 0.983980 -0.728570 0
M  V30 15 C 4.362470 -0.138890 -0.083560 0
M  V30 16 C 3.499450 -1.144190 0.366800 0
M  V30 17 Fe -0.331590 0.155320 -0.589560 0 CHG=2 VAL=6
M  V30 18 C -2.988780 0.368730 -1.683790 0
M  V30 19 C 0.159120 2.690040 0.993240 0
M  V30 20 H -2.831830 -0.360070 1.566750 0
M  V30 21 H -3.877900 0.696610 0.642170 0
M  V30 22 H -2.274250 1.963930 2.183630 0
M  V30 23 H -2.213830 2.433440 0.480980 0
M  V30 24 H -0.263040 1.021570 3.187680 0
M  V30 25 H 1.143110 0.728180 2.163240 0
M  V30 26 H -1.292990 -1.056100 2.544820 0
M  V30 27 H 0.390700 -1.457280 2.790510 0
M  V30 28 H -2.262740 -2.023250 -1.508300 0
M  V30 29 H -3.453940 -1.975030 -0.195510 0
M  V30 30 H -1.000420 -3.247260 -0.033740 0
M  V30 31 H -1.821590 -2.661960 1.400760 0
M  V30 32 H 1.386200 -2.724500 1.255150 0
M  V30 33 H 1.978540 1.926540 -1.374340 0
M  V30 34 H 4.480460 1.772340 -1.105400 0
M  V30 35 H 5.433960 -0.237530 0.061200 0
M  V30 36 H 3.882630 -2.034360 0.855210 0
M  V30 37 H -2.932180 1.455810 -1.643210 0
M  V30 38 H -2.474300 0.014000 -2.576040 0
M  V30 39 H -4.034440 0.043260 -1.691210 0
M  V30 40 H -0.162320 3.192470 0.082280 0
M  V30 41 H -0.090870 3.301640 1.867270 0
M  V30 42 H 1.237720 2.540040 0.962010 0
M  V30 43 H 0.968180 -2.638810 -0.470120 0
M  V30 44 O -0.242580 -1.011790 -1.938740 0
M  V30 45 H 0.512160 -0.809320 -2.523140 0
M  V30 46 F -0.432230 1.575550 -1.542290 0
M  V30 END ATOM
M  V30 BEGIN BOND
M  V30 1 1 38 18
M  V30 2 1 45 44
M  V30 3 1 44 17
M  V30 4 1 39 18
M  V30 5 1 18 37
M  V30 6 1 18 1
M  V30 7 1 46 17
M  V30 8 1 28 8
M  V30 9 1 33 13
M  V30 10 1 34 14
M  V30 11 1 13 14
M  V30 12 2 13 12
M  V30 13 2 14 15
M  V30 14 1 8 1
M  V30 15 1 8 29
M  V30 16 1 8 9
M  V30 17 1 1 2
M  V30 18 1 43 10
M  V30 19 1 12 11
M  V30 20 1 15 35
M  V30 21 1 15 16
M  V30 22 1 30 9
M  V30 23 1 40 19
M  V30 24 2 11 16
M  V30 25 1 11 10
M  V30 26 1 16 36
M  V30 27 1 10 7
M  V30 28 1 10 32
M  V30 29 1 9 7
M  V30 30 1 9 31
M  V30 31 1 23 3
M  V30 32 1 21 2
M  V30 33 1 7 6
M  V30 34 1 2 3
M  V30 35 1 2 20
M  V30 36 1 42 19
M  V30 37 1 19 4
M  V30 38 1 19 41
M  V30 39 1 4 3
M  V30 40 1 4 5
M  V30 41 1 3 22
M  V30 42 1 6 5
M  V30 43 1 6 26
M  V30 44 1 6 27
M  V30 45 1 25 5
M  V30 46 1 5 24
M  V30 47 9 1 17
M  V30 48 9 4 17
M  V30 49 9 7 17
M  V30 50 9 12 17
M  V30 END BOND
M  V30 END CTAB
M  END
