
     RDKit          3D

  0  0  0  0  0  0  0  0  0  0999 V3000
M  V30 BEGIN CTAB
M  V30 COUNTS 48 52 0 0 0
M  V30 BEGIN ATOM
M  V30 1 N -1.612560 -1.649850 -0.377440 0
M  V30 2 C -1.728710 -2.278390 0.980780 0
M  V30 3 C -1.463390 -1.239670 2.058780 0
M  V30 4 N -0.235200 -0.424830 1.777540 0
M  V30 5 C 1.055980 -1.122280 2.070290 0
M  V30 6 C 1.414200 -2.162650 1.013870 0
M  V30 7 N 1.065540 -1.703190 -0.387160 0
M  V30 8 C -1.065540 -2.615390 -1.383590 0
M  V30 9 C 0.449040 -2.827250 -1.194710 0
M  V30 10 C 2.263850 -1.125690 -1.081230 0
M  V30 11 C 2.535090 0.259890 -0.564630 0
M  V30 12 N 1.429520 0.953860 -0.196500 0
M  V30 13 C 1.542540 2.248250 0.162350 0
M  V30 14 C 2.771120 2.897380 0.189220 0
M  V30 15 C 3.918690 2.182070 -0.160890 0
M  V30 16 C 3.797160 0.843990 -0.542630 0
M  V30 17 Fe -0.227280 -0.156020 -0.299080 0 CHG=2 VAL=6
M  V30 18 C -2.945900 -1.169360 -0.843440 0
M  V30 19 C -0.298430 0.798920 2.628490 0
M  V30 20 H -1.033120 -3.112380 1.042850 0
M  V30 21 H -2.730980 -2.700890 1.109250 0
M  V30 22 H -1.393200 -1.711670 3.046650 0
M  V30 23 H -2.295820 -0.532800 2.090180 0
M  V30 24 H 1.023140 -1.592220 3.061490 0
M  V30 25 H 1.823400 -0.347950 2.101570 0
M  V30 26 H 0.895800 -3.098650 1.205690 0
M  V30 27 H 2.483820 -2.387060 1.070700 0
M  V30 28 H -1.249310 -2.175830 -2.361060 0
M  V30 29 H -1.612830 -3.562750 -1.315090 0
M  V30 30 H 0.921560 -2.856270 -2.176160 0
M  V30 31 H 0.676500 -3.775890 -0.704290 0
M  V30 32 H 3.129570 -1.788610 -0.981870 0
M  V30 33 H 0.623500 2.754050 0.429430 0
M  V30 34 H 2.822000 3.941050 0.479900 0
M  V30 35 H 4.893570 2.659320 -0.141550 0
M  V30 36 H 4.667270 0.262960 -0.830680 0
M  V30 37 H -3.395690 -0.544160 -0.071370 0
M  V30 38 H -2.807070 -0.586900 -1.753910 0
M  V30 39 H -3.601060 -2.024260 -1.043620 0
M  V30 40 H -1.195940 1.366880 2.387350 0
M  V30 41 H -0.320720 0.520230 3.688400 0
M  V30 42 H 0.578830 1.418260 2.446230 0
M  V30 43 H 2.005330 -1.036110 -2.139210 0
M  V30 44 O -0.214500 -0.106670 -2.085040 0
M  V30 45 H -0.297990 0.805000 -2.417430 0
M  V30 46 N -1.411150 1.299720 -0.169680 0
M  V30 47 C -2.192160 2.191460 -0.285140 0
M  V30 48 S -3.247470 3.399950 -0.411220 0
M  V30 END ATOM
M  V30 BEGIN BOND
M  V30 1 1 45 44
M  V30 2 1 28 8
M  V30 3 1 30 9
M  V30 4 1 43 10
M  V30 5 1 44 17
M  V30 6 1 38 18
M  V30 7 1 8 29
M  V30 8 1 8 9
M  V30 9 1 8 1
M  V30 10 1 9 31
M  V30 11 1 9 7
M  V30 12 1 10 32
M  V30 13 1 10 11
M  V30 14 1 10 7
M  V30 15 1 39 18
M  V30 16 1 18 1
M  V30 17 1 18 37
M  V30 18 1 36 16
M  V30 19 1 11 16
M  V30 20 2 11 12
M  V30 21 2 16 15
M  V30 22 2 48 47
M  V30 23 1 7 6
M  V30 24 1 1 2
M  V30 25 1 17 46
M  V30 26 2 47 46
M  V30 27 1 12 13
M  V30 28 1 15 35
M  V30 29 1 15 14
M  V30 30 2 13 14
M  V30 31 1 13 33
M  V30 32 1 14 34
M  V30 33 1 2 20
M  V30 34 1 2 21
M  V30 35 1 2 3
M  V30 36 1 6 27
M  V30 37 1 6 26
M  V30 38 1 6 5
M  V30 39 1 4 3
M  V30 40 1 4 5
M  V30 41 1 4 19
M  V30 42 1 3 23
M  V30 43 1 3 22
M  V30 44 1 5 25
M  V30 45 1 5 24
M  V30 46 1 40 19
M  V30 47 1 42 19
M  V30 48 1 19 41
M  V30 49 9 1 17
M  V30 50 9 4 17
M  V30 51 9 7 17
M  V30 52 9 12 17
M  V30 END BOND
M  V30 END CTAB
M  END
