
     RDKit          3D

  0  0  0  0  0  0  0  0  0  0999 V3000
M  V30 BEGIN CTAB
M  V30 COUNTS 53 59 0 0 0
M  V30 BEGIN ATOM
M  V30 1 C -2.951000 -3.313100 0.634300 0
M  V30 2 C -3.572400 -3.099200 -0.596400 0
M  V30 3 C -3.148800 -2.037000 -1.404100 0
M  V30 4 C -2.119100 -1.226500 -0.944600 0
M  V30 5 N -1.519700 -1.437800 0.246500 0
M  V30 6 C -1.596400 0.000000 -1.683700 0
M  V30 7 C -2.119000 1.226500 -0.944500 0
M  V30 8 C -3.148700 2.037000 -1.404100 0
M  V30 9 C -3.572400 3.099200 -0.596400 0
M  V30 10 C -2.951000 3.313100 0.634300 0
M  V30 11 C -1.921100 2.457000 1.021400 0
M  V30 12 N -1.519700 1.437800 0.246600 0
M  V30 13 N -0.102000 0.000000 -1.575900 0
M  V30 14 C 0.540600 1.237100 -2.096200 0
M  V30 15 C 0.540600 -1.237100 -2.096200 0
M  V30 16 C 1.644600 -1.741100 -1.188200 0
M  V30 17 C 1.644600 1.741100 -1.188200 0
M  V30 18 C 2.688300 2.527000 -1.670200 0
M  V30 19 C 3.622400 3.041900 -0.769000 0
M  V30 20 C 3.490700 2.751500 0.590700 0
M  V30 21 C 2.431900 1.947900 0.996800 0
M  V30 22 N 1.529000 1.457200 0.125700 0
M  V30 23 N 1.529000 -1.457200 0.125700 0
M  V30 24 C 2.431900 -1.947900 0.996700 0
M  V30 25 C 3.490800 -2.751500 0.590700 0
M  V30 26 C 3.622400 -3.041800 -0.769100 0
M  V30 27 C 2.688300 -2.526900 -1.670300 0
M  V30 28 C -1.921100 -2.457000 1.021400 0
M  V30 29 H -1.937600 0.000000 -2.725600 0
M  V30 30 H -3.253800 -4.125800 1.285500 0
M  V30 31 H -4.375200 -3.750100 -0.928600 0
M  V30 32 H -3.609600 -1.848100 -2.368400 0
M  V30 33 H -3.609600 1.848200 -2.368400 0
M  V30 34 H -4.375200 3.750200 -0.928500 0
M  V30 35 H -3.253800 4.125800 1.285600 0
M  V30 36 H -1.398600 2.575200 1.964900 0
M  V30 37 H 0.919900 1.080300 -3.111900 0
M  V30 38 H -0.220200 2.020700 -2.165300 0
M  V30 39 H -0.220200 -2.020600 -2.165400 0
M  V30 40 H 0.919800 -1.080300 -3.111900 0
M  V30 41 H 2.766100 2.736800 -2.732500 0
M  V30 42 H 4.442200 3.658400 -1.124500 0
M  V30 43 H 4.195300 3.132500 1.321900 0
M  V30 44 H 2.283700 1.671900 2.035200 0
M  V30 45 H 2.283700 -1.672000 2.035100 0
M  V30 46 H 4.195400 -3.132500 1.321800 0
M  V30 47 H 4.442300 -3.658300 -1.124700 0
M  V30 48 H 2.766100 -2.736700 -2.732600 0
M  V30 49 H -1.398600 -2.575200 1.964900 0
M  V30 50 Fe 0.064850 -0.000020 0.677470 0 CHG=2 VAL=5
M  V30 51 N 0.132600 -0.000000 2.530500 0
M  V30 52 N -0.081100 -0.000100 3.725900 0 CHG=1 VAL=4
M  V30 53 N -0.274300 -0.000200 4.856100 0 CHG=-1 VAL=2
M  V30 END ATOM
M  V30 BEGIN BOND
M  V30 1 1 40 15
M  V30 2 1 37 14
M  V30 3 1 48 27
M  V30 4 1 41 18
M  V30 5 1 29 6
M  V30 6 1 32 3
M  V30 7 1 33 8
M  V30 8 1 39 15
M  V30 9 1 38 14
M  V30 10 1 15 13
M  V30 11 1 15 16
M  V30 12 1 14 13
M  V30 13 1 14 17
M  V30 14 1 6 13
M  V30 15 1 6 4
M  V30 16 1 6 7
M  V30 17 1 27 16
M  V30 18 2 27 26
M  V30 19 2 18 17
M  V30 20 1 18 19
M  V30 21 2 3 4
M  V30 22 1 3 2
M  V30 23 2 8 7
M  V30 24 1 8 9
M  V30 25 2 16 23
M  V30 26 1 17 22
M  V30 27 1 47 26
M  V30 28 1 42 19
M  V30 29 1 4 5
M  V30 30 1 7 12
M  V30 31 1 31 2
M  V30 32 1 34 9
M  V30 33 1 26 25
M  V30 34 2 19 20
M  V30 35 2 2 1
M  V30 36 2 9 10
M  V30 37 1 23 24
M  V30 38 2 22 21
M  V30 39 2 5 28
M  V30 40 2 12 11
M  V30 41 2 25 24
M  V30 42 1 25 46
M  V30 43 1 20 21
M  V30 44 1 20 43
M  V30 45 1 1 28
M  V30 46 1 1 30
M  V30 47 1 10 11
M  V30 48 1 10 35
M  V30 49 1 24 45
M  V30 50 1 21 44
M  V30 51 1 28 49
M  V30 52 1 11 36
M  V30 53 2 51 52
M  V30 54 2 52 53
M  V30 55 1 50 51
M  V30 56 9 5 50
M  V30 57 9 12 50
M  V30 58 9 22 50
M  V30 59 9 23 50
M  V30 END BOND
M  V30 END CTAB
M  END
