
     RDKit          3D

  0  0  0  0  0  0  0  0  0  0999 V3000
M  V30 BEGIN CTAB
M  V30 COUNTS 51 58 0 0 0
M  V30 BEGIN ATOM
M  V30 1 C -0.840440 -2.932290 3.284020 0
M  V30 2 C 0.380880 -3.578550 3.091830 0
M  V30 3 C 1.217090 -3.175360 2.042500 0
M  V30 4 C 0.794780 -2.136880 1.224770 0
M  V30 5 N -0.385690 -1.510790 1.421840 0
M  V30 6 C 1.550180 -1.633960 0.000000 0
M  V30 7 C 0.794780 -2.136880 -1.224770 0
M  V30 8 C 1.217090 -3.175360 -2.042500 0
M  V30 9 C 0.380880 -3.578550 -3.091830 0
M  V30 10 C -0.840440 -2.932290 -3.284020 0
M  V30 11 C -1.193050 -1.893490 -2.423370 0
M  V30 12 N -0.385690 -1.510790 -1.421840 0
M  V30 13 N 1.475460 -0.135650 0.000000 0
M  V30 14 C 2.002370 0.498120 -1.239500 0
M  V30 15 C 2.002370 0.498120 1.239500 0
M  V30 16 C 1.102600 1.605330 1.749020 0
M  V30 17 C 1.102600 1.605330 -1.749020 0
M  V30 18 C 1.587690 2.634840 -2.550200 0
M  V30 19 C 0.690380 3.569750 -3.071790 0
M  V30 20 C -0.668630 3.452320 -2.773130 0
M  V30 21 C -1.081740 2.408570 -1.953620 0
M  V30 22 N -0.211830 1.506090 -1.456200 0
M  V30 23 N -0.211830 1.506090 1.456200 0
M  V30 24 C -1.081740 2.408570 1.953620 0
M  V30 25 C -0.668630 3.452320 2.773130 0
M  V30 26 C 0.690380 3.569750 3.071790 0
M  V30 27 C 1.587690 2.634840 2.550200 0
M  V30 28 C -1.193050 -1.893490 2.423370 0
M  V30 29 H 2.584410 -1.996450 0.000000 0
M  V30 30 H -1.513660 -3.224050 4.082680 0
M  V30 31 H 0.683800 -4.388520 3.748160 0
M  V30 32 H 2.172200 -3.660550 1.868600 0
M  V30 33 H 2.172200 -3.660550 -1.868600 0
M  V30 34 H 0.683800 -4.388520 -3.748160 0
M  V30 35 H -1.513660 -3.224050 -4.082680 0
M  V30 36 H -2.130420 -1.354940 -2.513860 0
M  V30 37 H 3.019830 0.870960 -1.080400 0
M  V30 38 H 2.068560 -0.267370 -2.018730 0
M  V30 39 H 2.068560 -0.267370 2.018730 0
M  V30 40 H 3.019830 0.870960 1.080400 0
M  V30 41 H 2.649180 2.700880 -2.767730 0
M  V30 42 H 1.049090 4.378680 -3.700770 0
M  V30 43 H -1.396850 4.156760 -3.159930 0
M  V30 44 H -2.119840 2.270870 -1.672670 0
M  V30 45 H -2.119840 2.270870 1.672670 0
M  V30 46 H -1.396850 4.156760 3.159930 0
M  V30 47 H 1.049090 4.378680 3.700770 0
M  V30 48 H 2.649180 2.700880 2.767730 0
M  V30 49 H -2.130420 -1.354940 2.513860 0
M  V30 50 Fe -0.772760 0.062930 0.000000 0 CHG=2 VAL=6
M  V30 51 Cl -2.977850 0.163860 0.000000 0
M  V30 END ATOM
M  V30 BEGIN BOND
M  V30 1 1 35 10
M  V30 2 1 34 9
M  V30 3 1 42 19
M  V30 4 1 10 9
M  V30 5 2 10 11
M  V30 6 1 43 20
M  V30 7 2 9 8
M  V30 8 1 19 20
M  V30 9 2 19 18
M  V30 10 2 20 21
M  V30 11 1 41 18
M  V30 12 1 18 17
M  V30 13 1 36 11
M  V30 14 1 11 12
M  V30 15 1 8 33
M  V30 16 1 8 7
M  V30 17 1 38 14
M  V30 18 1 21 44
M  V30 19 1 21 22
M  V30 20 2 17 22
M  V30 21 1 17 14
M  V30 22 2 12 7
M  V30 23 1 14 37
M  V30 24 1 14 13
M  V30 25 1 7 6
M  V30 26 1 13 6
M  V30 27 1 13 15
M  V30 28 1 50 51
M  V30 29 1 6 29
M  V30 30 1 6 4
M  V30 31 1 40 15
M  V30 32 2 4 5
M  V30 33 1 4 3
M  V30 34 1 15 16
M  V30 35 1 15 39
M  V30 36 1 5 28
M  V30 37 2 23 16
M  V30 38 1 23 24
M  V30 39 1 45 24
M  V30 40 1 16 27
M  V30 41 1 32 3
M  V30 42 2 24 25
M  V30 43 2 3 2
M  V30 44 1 28 49
M  V30 45 2 28 1
M  V30 46 1 27 48
M  V30 47 2 27 26
M  V30 48 1 25 26
M  V30 49 1 25 46
M  V30 50 1 26 47
M  V30 51 1 2 1
M  V30 52 1 2 31
M  V30 53 1 1 30
M  V30 54 9 5 50
M  V30 55 9 12 50
M  V30 56 9 13 50
M  V30 57 9 22 50
M  V30 58 9 23 50
M  V30 END BOND
M  V30 END CTAB
M  END
