
     RDKit          3D

  0  0  0  0  0  0  0  0  0  0999 V3000
M  V30 BEGIN CTAB
M  V30 COUNTS 52 59 0 0 0
M  V30 BEGIN ATOM
M  V30 1 C -2.714680 3.272980 -1.064210 0
M  V30 2 C -3.444250 3.135850 0.117390 0
M  V30 3 C -3.139220 2.091390 1.000020 0
M  V30 4 C -2.117160 1.219390 0.655490 0
M  V30 5 N -1.416230 1.358200 -0.493850 0
M  V30 6 C -1.669870 0.000130 1.450270 0
M  V30 7 C -2.117770 -1.218840 0.655380 0
M  V30 8 C -3.140300 -2.090330 0.999820 0
M  V30 9 C -3.445880 -3.134540 0.117090 0
M  V30 10 C -2.716380 -3.271950 -1.064520 0
M  V30 11 C -1.695470 -2.361760 -1.337260 0
M  V30 12 N -1.416910 -1.357910 -0.493980 0
M  V30 13 N -0.155470 -0.000240 1.405630 0
M  V30 14 C 0.487670 -1.247370 1.933950 0
M  V30 15 C 0.488290 1.246500 1.934150 0
M  V30 16 C 1.561470 1.742040 0.987370 0
M  V30 17 C 1.561220 -1.742640 0.987470 0
M  V30 18 C 2.581420 -2.601300 1.383250 0
M  V30 19 C 3.475100 -3.075670 0.419600 0
M  V30 20 C 3.324250 -2.674450 -0.908970 0
M  V30 21 C 2.289720 -1.802110 -1.233390 0
M  V30 22 N 1.433660 -1.353460 -0.299520 0
M  V30 23 N 1.434000 1.352630 -0.299530 0
M  V30 24 C 2.289850 1.801450 -1.233520 0
M  V30 25 C 3.324090 2.674180 -0.909290 0
M  V30 26 C 3.474850 3.075670 0.419220 0
M  V30 27 C 2.581390 2.601140 1.382970 0
M  V30 28 C -1.694270 2.362260 -1.337040 0
M  V30 29 H -2.064770 0.000180 2.471050 0
M  V30 30 H -2.926450 4.071670 -1.766660 0
M  V30 31 H -4.239470 3.835030 0.356450 0
M  V30 32 H -3.682620 1.964870 1.930770 0
M  V30 33 H -3.683630 -1.963610 1.930590 0
M  V30 34 H -4.241480 -3.833320 0.356080 0
M  V30 35 H -2.928570 -4.070460 -1.767040 0
M  V30 36 H -1.081450 -2.414800 -2.229770 0
M  V30 37 H 0.888030 -1.077420 2.937770 0
M  V30 38 H -0.282210 -2.019250 2.026690 0
M  V30 39 H -0.281340 2.018520 2.027850 0
M  V30 40 H 0.889250 1.075900 2.937610 0
M  V30 41 H 2.672730 -2.897130 2.423660 0
M  V30 42 H 4.278590 -3.747450 0.705130 0
M  V30 43 H 3.998610 -3.022490 -1.683720 0
M  V30 44 H 2.111910 -1.435070 -2.237940 0
M  V30 45 H 2.112080 1.434240 -2.238020 0
M  V30 46 H 3.998310 3.022330 -1.684120 0
M  V30 47 H 4.278100 3.747800 0.704600 0
M  V30 48 H 2.672640 2.897160 2.423330 0
M  V30 49 H -1.080250 2.415030 -2.229570 0
M  V30 50 Fe 0.033090 -0.000230 -0.623830 0 CHG=2 VAL=6
M  V30 51 O 0.240140 -0.000280 -2.395420 0
M  V30 52 H -0.607430 -0.000230 -2.874420 0
M  V30 END ATOM
M  V30 BEGIN BOND
M  V30 1 1 52 51
M  V30 2 1 51 50
M  V30 3 1 45 24
M  V30 4 1 44 21
M  V30 5 1 36 11
M  V30 6 1 49 28
M  V30 7 1 35 10
M  V30 8 1 30 1
M  V30 9 1 46 25
M  V30 10 1 43 20
M  V30 11 2 11 10
M  V30 12 1 11 12
M  V30 13 2 28 1
M  V30 14 1 28 5
M  V30 15 1 24 25
M  V30 16 2 24 23
M  V30 17 2 21 20
M  V30 18 1 21 22
M  V30 19 1 10 9
M  V30 20 1 1 2
M  V30 21 2 25 26
M  V30 22 1 20 19
M  V30 23 2 12 7
M  V30 24 2 5 4
M  V30 25 1 23 16
M  V30 26 2 22 17
M  V30 27 1 9 34
M  V30 28 2 9 8
M  V30 29 1 2 31
M  V30 30 2 2 3
M  V30 31 1 26 47
M  V30 32 1 26 27
M  V30 33 1 19 42
M  V30 34 2 19 18
M  V30 35 1 7 8
M  V30 36 1 7 6
M  V30 37 1 4 3
M  V30 38 1 4 6
M  V30 39 2 16 27
M  V30 40 1 16 15
M  V30 41 1 17 18
M  V30 42 1 17 14
M  V30 43 1 8 33
M  V30 44 1 3 32
M  V30 45 1 27 48
M  V30 46 1 18 41
M  V30 47 1 13 6
M  V30 48 1 13 14
M  V30 49 1 13 15
M  V30 50 1 6 29
M  V30 51 1 14 38
M  V30 52 1 14 37
M  V30 53 1 15 39
M  V30 54 1 15 40
M  V30 55 9 5 50
M  V30 56 9 12 50
M  V30 57 9 13 50
M  V30 58 9 22 50
M  V30 59 9 23 50
M  V30 END BOND
M  V30 END CTAB
M  END
