
     RDKit          3D

  0  0  0  0  0  0  0  0  0  0999 V3000
M  V30 BEGIN CTAB
M  V30 COUNTS 53 60 0 0 0
M  V30 BEGIN ATOM
M  V30 1 C -2.933260 -3.303250 0.685210 0
M  V30 2 C -3.645730 -3.096690 -0.496360 0
M  V30 3 C -3.285830 -2.038870 -1.340200 0
M  V30 4 C -2.224390 -1.225970 -0.965200 0
M  V30 5 N -1.535760 -1.432460 0.177440 0
M  V30 6 C -1.762260 0.000050 -1.745340 0
M  V30 7 C -2.224390 1.226030 -0.965140 0
M  V30 8 C -3.285820 2.038950 -1.340080 0
M  V30 9 C -3.645710 3.096730 -0.496190 0
M  V30 10 C -2.933250 3.303210 0.685400 0
M  V30 11 C -1.876650 2.445490 0.988350 0
M  V30 12 N -1.535760 1.432450 0.177520 0
M  V30 13 N -0.264090 0.000050 -1.759550 0
M  V30 14 C 0.334420 1.237160 -2.328900 0
M  V30 15 C 0.334430 -1.237020 -2.328980 0
M  V30 16 C 1.504200 -1.743760 -1.508920 0
M  V30 17 C 1.504190 1.743860 -1.508800 0
M  V30 18 C 2.506720 2.531770 -2.068790 0
M  V30 19 C 3.505610 3.048350 -1.240950 0
M  V30 20 C 3.478260 2.758100 0.124910 0
M  V30 21 C 2.455050 1.952330 0.610460 0
M  V30 22 N 1.490160 1.459960 -0.190210 0
M  V30 23 N 1.490170 -1.459950 -0.190300 0
M  V30 24 C 2.455060 -1.952370 0.610340 0
M  V30 25 C 3.478280 -2.758100 0.124740 0
M  V30 26 C 3.505630 -3.048260 -1.241150 0
M  V30 27 C 2.506730 -2.531620 -2.068960 0
M  V30 28 C -1.876660 -2.445540 0.988210 0
M  V30 29 H -2.187630 0.000080 -2.755800 0
M  V30 30 H -3.186630 -4.111280 1.362770 0
M  V30 31 H -4.471210 -3.749500 -0.762770 0
M  V30 32 H -3.819820 -1.854910 -2.267010 0
M  V30 33 H -3.819810 1.855050 -2.266910 0
M  V30 34 H -4.471200 3.749550 -0.762560 0
M  V30 35 H -3.186620 4.111210 1.363000 0
M  V30 36 H -1.285110 2.553880 1.891490 0
M  V30 37 H 0.634770 1.080350 -3.370760 0
M  V30 38 H -0.430590 2.019650 -2.339880 0
M  V30 39 H -0.430580 -2.019520 -2.340010 0
M  V30 40 H 0.634770 -1.080140 -3.370830 0
M  V30 41 H 2.503210 2.741750 -3.133880 0
M  V30 42 H 4.294910 3.666370 -1.657740 0
M  V30 43 H 4.235560 3.140820 0.800320 0
M  V30 44 H 2.385630 1.676580 1.657210 0
M  V30 45 H 2.385640 -1.676680 1.657110 0
M  V30 46 H 4.235580 -3.140850 0.800120 0
M  V30 47 H 4.294930 -3.666240 -1.657970 0
M  V30 48 H 2.503240 -2.741530 -3.134060 0
M  V30 49 H -1.285120 -2.553990 1.891350 0
M  V30 50 Fe 0.076340 -0.000020 0.480350 0 CHG=2 VAL=6
M  V30 51 N 0.321370 -0.000070 2.332980 0
M  V30 52 C 0.422060 -0.000110 3.539960 0
M  V30 53 S 0.558660 -0.000180 5.111920 0
M  V30 END ATOM
M  V30 BEGIN BOND
M  V30 1 1 40 15
M  V30 2 1 37 14
M  V30 3 1 48 27
M  V30 4 1 41 18
M  V30 5 1 29 6
M  V30 6 1 39 15
M  V30 7 1 38 14
M  V30 8 1 15 13
M  V30 9 1 15 16
M  V30 10 1 14 13
M  V30 11 1 14 17
M  V30 12 1 32 3
M  V30 13 1 33 8
M  V30 14 1 27 16
M  V30 15 2 27 26
M  V30 16 2 18 17
M  V30 17 1 18 19
M  V30 18 1 13 6
M  V30 19 1 6 4
M  V30 20 1 6 7
M  V30 21 1 47 26
M  V30 22 1 42 19
M  V30 23 2 16 23
M  V30 24 1 17 22
M  V30 25 2 3 4
M  V30 26 1 3 2
M  V30 27 2 8 7
M  V30 28 1 8 9
M  V30 29 1 26 25
M  V30 30 2 19 20
M  V30 31 1 4 5
M  V30 32 1 7 12
M  V30 33 1 31 2
M  V30 34 1 34 9
M  V30 35 2 2 1
M  V30 36 2 9 10
M  V30 37 1 23 24
M  V30 38 2 22 21
M  V30 39 2 25 24
M  V30 40 1 25 46
M  V30 41 1 20 21
M  V30 42 1 20 43
M  V30 43 2 5 28
M  V30 44 2 12 11
M  V30 45 1 50 51
M  V30 46 1 24 45
M  V30 47 1 21 44
M  V30 48 1 1 28
M  V30 49 1 1 30
M  V30 50 1 10 11
M  V30 51 1 10 35
M  V30 52 1 28 49
M  V30 53 1 11 36
M  V30 54 2 51 52
M  V30 55 2 52 53
M  V30 56 9 5 50
M  V30 57 9 12 50
M  V30 58 9 13 50
M  V30 59 9 22 50
M  V30 60 9 23 50
M  V30 END BOND
M  V30 END CTAB
M  END
