
     RDKit          3D

  0  0  0  0  0  0  0  0  0  0999 V3000
M  V30 BEGIN CTAB
M  V30 COUNTS 64 69 0 0 0
M  V30 BEGIN ATOM
M  V30 1 Fe -0.258950 -0.596320 -0.031570 0 CHG=2 VAL=6
M  V30 2 N -0.934840 1.360820 -0.187090 0
M  V30 3 C -0.934770 2.140700 0.912480 0
M  V30 4 N -1.398540 -0.534840 -2.060550 0
M  V30 5 N -3.633740 -0.724840 0.404260 0
M  V30 6 N -0.876750 -0.017310 2.139740 0
M  V30 7 C -1.538800 3.203050 -1.566740 0
M  V30 8 H -1.778880 3.597480 -2.548820 0
M  V30 9 C -1.229190 1.855430 -1.405950 0
M  V30 10 C -1.155760 0.855920 -2.537250 0
M  V30 11 H -0.136830 0.882510 -2.934720 0
M  V30 12 H -1.837810 1.127310 -3.353590 0
M  V30 13 C -0.756050 -1.518470 -2.992020 0
M  V30 14 H -1.229820 -1.474900 -3.980520 0
M  V30 15 H -0.866590 -2.518990 -2.571660 0
M  V30 16 H 0.303180 -1.290220 -3.076860 0
M  V30 17 C -2.838190 -0.884580 -2.008050 0
M  V30 18 H -2.902310 -1.963310 -1.859910 0
M  V30 19 H -3.298800 -0.659020 -2.979830 0
M  V30 20 C -3.711660 -0.173730 -0.948340 0
M  V30 21 H -3.512250 0.895520 -0.903390 0
M  V30 22 H -4.754790 -0.312060 -1.267680 0
M  V30 23 C -4.259180 -2.019720 0.645870 0
M  V30 24 H -5.341680 -1.847920 0.760300 0
M  V30 25 H -3.869410 -2.470720 1.557490 0
M  V30 26 H -4.089590 -2.691000 -0.195000 0
M  V30 27 C -3.398420 0.143660 1.557570 0
M  V30 28 H -4.330560 0.124190 2.140810 0
M  V30 29 H -3.243800 1.161570 1.204240 0
M  V30 30 C -2.278340 -0.315280 2.519780 0
M  V30 31 H -2.497570 0.158510 3.486680 0
M  V30 32 H -2.349700 -1.394260 2.662830 0
M  V30 33 C -0.006880 -0.773790 3.097940 0
M  V30 34 H 1.036010 -0.569170 2.870930 0
M  V30 35 H -0.190660 -1.840970 2.966490 0
M  V30 36 H -0.231350 -0.480660 4.131020 0
M  V30 37 C -1.235770 3.496310 0.818890 0
M  V30 38 H -1.238450 4.120510 1.706610 0
M  V30 39 C -0.553660 1.436100 2.193980 0
M  V30 40 H -1.011550 1.919510 3.066850 0
M  V30 41 H 0.532360 1.514700 2.302550 0
M  V30 42 O 1.332370 -0.387030 -1.350270 0
M  V30 43 O 1.586050 -0.196540 0.777270 0
M  V30 44 C 2.148860 -0.193160 -0.379750 0
M  V30 45 C 4.302820 -1.392210 -0.224880 0
M  V30 46 H 4.059940 -1.657840 0.812400 0
M  V30 47 H 3.901230 -2.180990 -0.871960 0
M  V30 48 C 3.614370 -0.031770 -0.560900 0
M  V30 49 H 3.786250 0.189430 -1.621120 0
M  V30 50 C 5.824600 -1.270350 -0.393970 0
M  V30 51 H 6.056430 -1.091770 -1.452980 0
M  V30 52 H 6.288730 -2.226170 -0.126510 0
M  V30 53 C 6.399660 -0.132420 0.461340 0
M  V30 54 H 7.478410 -0.045810 0.293920 0
M  V30 55 H 6.264100 -0.372590 1.525560 0
M  V30 56 C 5.709540 1.203430 0.149120 0
M  V30 57 H 5.937790 1.504110 -0.882970 0
M  V30 58 H 6.094630 1.996530 0.799550 0
M  V30 59 C 4.186120 1.103330 0.320850 0
M  V30 60 H 3.706160 2.055970 0.061500 0
M  V30 61 H 3.941760 0.888880 1.369200 0
M  V30 62 C -1.531880 4.030550 -0.439360 0
M  V30 63 H -1.768780 5.085560 -0.539020 0
M  V30 64 Cl -1.068110 -2.654460 0.320830 0
M  V30 END ATOM
M  V30 BEGIN BOND
M  V30 1 1 14 13
M  V30 2 1 12 10
M  V30 3 1 16 13
M  V30 4 1 13 15
M  V30 5 1 13 4
M  V30 6 1 19 17
M  V30 7 1 11 10
M  V30 8 1 8 7
M  V30 9 1 10 4
M  V30 10 1 10 9
M  V30 11 1 4 17
M  V30 12 1 17 18
M  V30 13 1 17 20
M  V30 14 1 49 48
M  V30 15 1 7 9
M  V30 16 2 7 62
M  V30 17 1 51 50
M  V30 18 2 9 2
M  V30 19 2 42 44
M  V30 20 1 22 20
M  V30 21 1 20 21
M  V30 22 1 20 5
M  V30 23 1 57 56
M  V30 24 1 47 45
M  V30 25 1 48 44
M  V30 26 1 48 45
M  V30 27 1 48 59
M  V30 28 1 63 62
M  V30 29 1 62 37
M  V30 30 1 50 45
M  V30 31 1 50 52
M  V30 32 1 50 53
M  V30 33 1 44 43
M  V30 34 1 45 46
M  V30 35 1 26 23
M  V30 36 1 2 3
M  V30 37 1 1 64
M  V30 38 1 1 43
M  V30 39 1 60 59
M  V30 40 1 56 59
M  V30 41 1 56 53
M  V30 42 1 56 58
M  V30 43 1 54 53
M  V30 44 1 59 61
M  V30 45 1 5 23
M  V30 46 1 5 27
M  V30 47 1 53 55
M  V30 48 1 23 24
M  V30 49 1 23 25
M  V30 50 2 37 3
M  V30 51 1 37 38
M  V30 52 1 3 39
M  V30 53 1 29 27
M  V30 54 1 27 28
M  V30 55 1 27 30
M  V30 56 1 6 39
M  V30 57 1 6 30
M  V30 58 1 6 33
M  V30 59 1 39 41
M  V30 60 1 39 40
M  V30 61 1 30 32
M  V30 62 1 30 31
M  V30 63 1 34 33
M  V30 64 1 35 33
M  V30 65 1 33 36
M  V30 66 9 2 1
M  V30 67 9 4 1
M  V30 68 9 6 1
M  V30 69 9 42 1
M  V30 END BOND
M  V30 END CTAB
M  END
