
     RDKit          3D

  0  0  0  0  0  0  0  0  0  0999 V3000
M  V30 BEGIN CTAB
M  V30 COUNTS 55 59 0 0 0
M  V30 BEGIN ATOM
M  V30 1 Fe 1.170190 0.063270 0.077750 0 CHG=3 VAL=6
M  V30 2 N -0.759950 0.176190 -0.115620 0
M  V30 3 C -1.562120 0.180110 0.988430 0
M  V30 4 O 2.894200 -0.007560 0.254920 0
M  V30 5 N 1.033550 -0.138120 -2.094180 0
M  V30 6 N 1.124770 -2.147910 0.047960 0
M  V30 7 N 0.594080 -0.185080 2.172800 0
M  V30 8 C -2.675730 0.171890 -1.545250 0
M  V30 9 H -3.124970 0.194900 -2.532900 0
M  V30 10 C -1.317740 0.210370 -1.368250 0
M  V30 11 C -0.314540 0.409180 -2.472490 0
M  V30 12 H -0.195010 1.486120 -2.628030 0
M  V30 13 H -0.643140 -0.024550 -3.423470 0
M  V30 14 C 2.120250 0.613500 -2.788140 0
M  V30 15 H 2.028140 0.485500 -3.873930 0
M  V30 16 H 3.085280 0.232970 -2.453290 0
M  V30 17 H 2.037390 1.671400 -2.537980 0
M  V30 18 C 1.161930 -1.616190 -2.372880 0
M  V30 19 H 2.226540 -1.837480 -2.451640 0
M  V30 20 H 0.713500 -1.843750 -3.347060 0
M  V30 21 C 0.511760 -2.460410 -1.285760 0
M  V30 22 H -0.560890 -2.277810 -1.218610 0
M  V30 23 H 0.660250 -3.526570 -1.500180 0
M  V30 24 C 2.501770 -2.706480 0.177600 0
M  V30 25 H 2.420750 -3.801010 0.150770 0
M  V30 26 H 2.956320 -2.392480 1.113420 0
M  V30 27 H 3.133490 -2.362570 -0.637000 0
M  V30 28 C 0.264130 -2.490470 1.228360 0
M  V30 29 H 0.374900 -3.560540 1.445910 0
M  V30 30 H -0.775580 -2.309290 0.954480 0
M  V30 31 C 0.682210 -1.667750 2.439440 0
M  V30 32 H 0.057240 -1.921880 3.303640 0
M  V30 33 H 1.714020 -1.883750 2.717530 0
M  V30 34 C 1.508490 0.558740 3.088630 0
M  V30 35 H 1.465280 1.621360 2.848380 0
M  V30 36 H 2.525850 0.193780 2.946950 0
M  V30 37 H 1.201670 0.405160 4.130690 0
M  V30 38 C -3.529620 0.126420 -0.403740 0
M  V30 39 C -2.935900 0.143810 0.890110 0
M  V30 40 H -3.544420 0.146440 1.786790 0
M  V30 41 C -0.809860 0.339380 2.283640 0
M  V30 42 H -1.322030 -0.132670 3.129480 0
M  V30 43 H -0.741830 1.410400 2.500400 0
M  V30 44 O -4.807540 0.082670 -0.651220 0
M  V30 45 C -5.810760 0.056260 0.410210 0
M  V30 46 H -6.764100 0.020320 -0.113100 0
M  V30 47 H -5.737570 0.969220 1.007170 0
M  V30 48 H -5.676870 -0.840350 1.021290 0
M  V30 49 N 1.271530 2.281850 0.106140 0
M  V30 50 C 1.390610 3.436160 0.123190 0
M  V30 51 C 1.544190 4.883350 0.144690 0
M  V30 52 H 0.569170 5.365230 0.008090 0
M  V30 53 H 1.969660 5.197870 1.105040 0
M  V30 54 H 2.216720 5.197570 -0.662320 0
M  V30 55 H 3.389720 0.834910 0.311790 0
M  V30 END ATOM
M  V30 BEGIN BOND
M  V30 1 1 15 14
M  V30 2 1 13 11
M  V30 3 1 20 18
M  V30 4 1 14 17
M  V30 5 1 14 16
M  V30 6 1 14 5
M  V30 7 1 12 11
M  V30 8 1 9 8
M  V30 9 1 11 5
M  V30 10 1 11 10
M  V30 11 1 19 18
M  V30 12 1 18 5
M  V30 13 1 18 21
M  V30 14 1 8 10
M  V30 15 2 8 38
M  V30 16 1 23 21
M  V30 17 2 10 2
M  V30 18 1 21 22
M  V30 19 1 21 6
M  V30 20 1 54 51
M  V30 21 1 44 38
M  V30 22 1 44 45
M  V30 23 1 27 24
M  V30 24 1 38 39
M  V30 25 1 2 3
M  V30 26 1 46 45
M  V30 27 1 52 51
M  V30 28 1 6 24
M  V30 29 1 6 28
M  V30 30 1 1 4
M  V30 31 3 49 50
M  V30 32 1 50 51
M  V30 33 1 51 53
M  V30 34 1 25 24
M  V30 35 1 24 26
M  V30 36 1 4 55
M  V30 37 1 45 47
M  V30 38 1 45 48
M  V30 39 2 39 3
M  V30 40 1 39 40
M  V30 41 1 30 28
M  V30 42 1 3 41
M  V30 43 1 28 29
M  V30 44 1 28 31
M  V30 45 1 7 41
M  V30 46 1 7 31
M  V30 47 1 7 34
M  V30 48 1 41 43
M  V30 49 1 41 42
M  V30 50 1 31 33
M  V30 51 1 31 32
M  V30 52 1 35 34
M  V30 53 1 36 34
M  V30 54 1 34 37
M  V30 55 9 2 1
M  V30 56 9 5 1
M  V30 57 9 6 1
M  V30 58 9 7 1
M  V30 59 9 49 1
M  V30 END BOND
M  V30 END CTAB
M  END
