
     RDKit          3D

  0  0  0  0  0  0  0  0  0  0999 V3000
M  V30 BEGIN CTAB
M  V30 COUNTS 52 54 0 0 0
M  V30 BEGIN ATOM
M  V30 1 Fe -1.119070 0.446820 0.053490 0 CHG=3 RAD=2 VAL=4
M  V30 2 N 0.813000 0.314100 -0.122000 0
M  V30 3 C 1.597400 0.319300 0.988900 0
M  V30 4 N -0.996600 -0.041300 -1.973000 0
M  V30 5 N -0.983900 -2.702300 0.089200 0
M  V30 6 N -0.619600 0.021700 2.037100 0
M  V30 7 C 2.735400 0.219000 -1.531300 0
M  V30 8 H 3.193400 0.187100 -2.514900 0
M  V30 9 C 1.376000 0.277500 -1.367100 0
M  V30 10 C 0.364000 0.383200 -2.471900 0
M  V30 11 H 0.285300 1.433300 -2.770800 0
M  V30 12 H 0.641100 -0.189700 -3.363800 0
M  V30 13 C -2.064400 0.697100 -2.731000 0
M  V30 14 H -2.013100 0.441200 -3.795600 0
M  V30 15 H -3.040300 0.418800 -2.333400 0
M  V30 16 H -1.908900 1.768500 -2.607500 0
M  V30 17 C -1.253400 -1.511800 -2.144800 0
M  V30 18 H -2.318200 -1.666600 -1.973200 0
M  V30 19 H -1.039400 -1.772000 -3.188100 0
M  V30 20 C -0.434500 -2.484700 -1.256200 0
M  V30 21 H 0.610100 -2.188300 -1.168000 0
M  V30 22 H -0.471100 -3.462500 -1.757700 0
M  V30 23 C -2.208400 -3.476800 0.214700 0
M  V30 24 H -1.925300 -4.545000 0.210900 0
M  V30 25 H -2.714400 -3.258900 1.155900 0
M  V30 26 H -2.874600 -3.295000 -0.629400 0
M  V30 27 C -0.197800 -2.445400 1.303900 0
M  V30 28 H -0.140500 -3.407100 1.833700 0
M  V30 29 H 0.812200 -2.156800 1.015300 0
M  V30 30 C -0.840200 -1.441800 2.297500 0
M  V30 31 H -0.439600 -1.672200 3.291800 0
M  V30 32 H -1.918400 -1.595600 2.328000 0
M  V30 33 C -1.528700 0.788500 2.956900 0
M  V30 34 H -1.399300 1.854700 2.773100 0
M  V30 35 H -2.561100 0.503500 2.754900 0
M  V30 36 H -1.281700 0.564800 4.001100 0
M  V30 37 C 3.578700 0.230900 -0.380700 0
M  V30 38 C 2.972300 0.268400 0.907300 0
M  V30 39 H 3.571400 0.272700 1.810400 0
M  V30 40 C 0.809700 0.451900 2.262200 0
M  V30 41 H 1.249600 -0.103100 3.098300 0
M  V30 42 H 0.789500 1.508500 2.548100 0
M  V30 43 O 4.859400 0.196100 -0.614800 0
M  V30 44 C 5.852100 0.243700 0.455900 0
M  V30 45 H 6.811400 0.223600 -0.057300 0
M  V30 46 H 5.740300 1.173900 1.019200 0
M  V30 47 H 5.744900 -0.635400 1.097200 0
M  V30 48 O -2.691900 -0.327600 0.213500 0 RAD=2 VAL=1
M  V30 49 H -3.498900 0.220400 0.272700 0
M  V30 50 N -1.363400 2.298800 0.046300 0
M  V30 51 N -1.933700 3.376400 0.074100 0 CHG=1 VAL=4
M  V30 52 N -2.443900 4.403900 0.097600 0 CHG=-1 VAL=2
M  V30 END ATOM
M  V30 BEGIN BOND
M  V30 1 1 14 13
M  V30 2 1 12 10
M  V30 3 1 19 17
M  V30 4 1 11 10
M  V30 5 1 13 16
M  V30 6 1 13 15
M  V30 7 1 13 4
M  V30 8 1 8 7
M  V30 9 1 10 4
M  V30 10 1 10 9
M  V30 11 1 17 18
M  V30 12 1 17 4
M  V30 13 1 17 20
M  V30 14 1 22 20
M  V30 15 1 7 9
M  V30 16 2 7 37
M  V30 17 2 9 2
M  V30 18 1 20 21
M  V30 19 1 20 5
M  V30 20 1 26 23
M  V30 21 1 43 37
M  V30 22 1 43 44
M  V30 23 1 37 38
M  V30 24 1 2 3
M  V30 25 1 45 44
M  V30 26 2 50 51
M  V30 27 2 51 52
M  V30 28 1 5 23
M  V30 29 1 5 27
M  V30 30 1 24 23
M  V30 31 1 48 49
M  V30 32 1 23 25
M  V30 33 1 44 46
M  V30 34 1 44 47
M  V30 35 2 38 3
M  V30 36 1 38 39
M  V30 37 1 3 40
M  V30 38 1 29 27
M  V30 39 1 27 28
M  V30 40 1 27 30
M  V30 41 1 6 40
M  V30 42 1 6 30
M  V30 43 1 6 33
M  V30 44 1 40 42
M  V30 45 1 40 41
M  V30 46 1 30 32
M  V30 47 1 30 31
M  V30 48 1 35 33
M  V30 49 1 34 33
M  V30 50 1 33 36
M  V30 51 1 1 50
M  V30 52 9 2 1
M  V30 53 9 4 1
M  V30 54 9 6 1
M  V30 END BOND
M  V30 END CTAB
M  END
