
     RDKit          3D

  0  0  0  0  0  0  0  0  0  0999 V3000
M  V30 BEGIN CTAB
M  V30 COUNTS 50 54 0 0 0
M  V30 BEGIN ATOM
M  V30 1 Fe 0.732250 -0.002940 -0.161560 0 CHG=3 VAL=5
M  V30 2 N -1.114300 0.087780 -0.496510 0
M  V30 3 C -1.861570 -1.056900 -0.492520 0
M  V30 4 N 0.590510 2.079880 -0.121910 0
M  V30 5 N 0.729280 0.060840 1.970030 0
M  V30 6 N 0.359800 -2.051310 -0.002760 0
M  V30 7 C -3.087440 1.428950 -0.592670 0
M  V30 8 H -3.582650 2.392650 -0.655150 0
M  V30 9 C -1.724730 1.315890 -0.570990 0
M  V30 10 C -0.746110 2.439520 -0.734730 0
M  V30 11 H -0.584230 2.595790 -1.806960 0
M  V30 12 H -1.106700 3.386060 -0.319870 0
M  V30 13 C 1.669800 2.810870 -0.861550 0
M  V30 14 H 1.484110 3.890250 -0.816390 0
M  V30 15 H 2.633360 2.594180 -0.401530 0
M  V30 16 H 1.677220 2.488530 -1.904340 0
M  V30 17 C 0.648270 2.443930 1.352480 0
M  V30 18 H 1.698910 2.599740 1.598960 0
M  V30 19 H 0.137410 3.400100 1.506890 0
M  V30 20 C 0.043080 1.361830 2.242230 0
M  V30 21 H -1.022800 1.236320 2.041300 0
M  V30 22 H 0.154360 1.644230 3.296110 0
M  V30 23 C 2.089660 0.015700 2.585150 0
M  V30 24 H 2.003940 0.060520 3.677060 0
M  V30 25 H 2.601250 -0.903390 2.302330 0
M  V30 26 H 2.689260 0.855630 2.236750 0
M  V30 27 C -0.074660 -1.150840 2.319610 0
M  V30 28 H 0.020220 -1.382930 3.387250 0
M  V30 29 H -1.125870 -0.934630 2.117480 0
M  V30 30 C 0.415370 -2.333330 1.488760 0
M  V30 31 H -0.172370 -3.231020 1.707930 0
M  V30 32 H 1.453700 -2.565320 1.727750 0
M  V30 33 C 1.335860 -2.936150 -0.717950 0
M  V30 34 H 1.354460 -2.673350 -1.777250 0
M  V30 35 H 2.327620 -2.801270 -0.287720 0
M  V30 36 H 1.035850 -3.984740 -0.608360 0
M  V30 37 C -3.887920 0.245450 -0.564930 0
M  V30 38 C -3.235800 -1.022560 -0.517090 0
M  V30 39 H -3.803750 -1.945500 -0.519830 0
M  V30 40 C -1.022670 -2.298580 -0.566660 0
M  V30 41 H -1.482890 -3.156770 -0.066750 0
M  V30 42 H -0.905790 -2.564270 -1.623120 0
M  V30 43 O -5.173370 0.432220 -0.594000 0
M  V30 44 C -6.133510 -0.671800 -0.604640 0
M  V30 45 H -7.107120 -0.187130 -0.637290 0
M  V30 46 H -5.978820 -1.280690 -1.499150 0
M  V30 47 H -6.027890 -1.257740 0.312090 0
M  V30 48 N 2.574150 -0.117780 -0.630350 0
M  V30 49 C 3.694090 -0.187990 -1.041650 0
M  V30 50 S 5.204450 -0.281020 -1.587650 0
M  V30 END ATOM
M  V30 BEGIN BOND
M  V30 1 1 16 13
M  V30 2 1 11 10
M  V30 3 1 34 33
M  V30 4 1 42 40
M  V30 5 2 50 49
M  V30 6 1 46 44
M  V30 7 2 49 48
M  V30 8 1 13 14
M  V30 9 1 13 15
M  V30 10 1 13 4
M  V30 11 1 10 9
M  V30 12 1 10 12
M  V30 13 1 10 4
M  V30 14 1 33 36
M  V30 15 1 33 35
M  V30 16 1 33 6
M  V30 17 1 8 7
M  V30 18 1 45 44
M  V30 19 1 48 1
M  V30 20 1 44 43
M  V30 21 1 44 47
M  V30 22 1 43 37
M  V30 23 1 7 9
M  V30 24 2 7 37
M  V30 25 2 9 2
M  V30 26 1 40 3
M  V30 27 1 40 41
M  V30 28 1 40 6
M  V30 29 1 37 38
M  V30 30 1 39 38
M  V30 31 2 38 3
M  V30 32 1 2 3
M  V30 33 1 4 17
M  V30 34 1 6 30
M  V30 35 1 17 19
M  V30 36 1 17 18
M  V30 37 1 17 20
M  V30 38 1 30 31
M  V30 39 1 30 32
M  V30 40 1 30 27
M  V30 41 1 5 20
M  V30 42 1 5 27
M  V30 43 1 5 23
M  V30 44 1 21 20
M  V30 45 1 29 27
M  V30 46 1 26 23
M  V30 47 1 20 22
M  V30 48 1 25 23
M  V30 49 1 27 28
M  V30 50 1 23 24
M  V30 51 9 2 1
M  V30 52 9 4 1
M  V30 53 9 5 1
M  V30 54 9 6 1
M  V30 END BOND
M  V30 END CTAB
M  END
