
     RDKit          3D

  0  0  0  0  0  0  0  0  0  0999 V3000
M  V30 BEGIN CTAB
M  V30 COUNTS 55 59 0 0 0
M  V30 BEGIN ATOM
M  V30 1 Fe 0.825720 -0.011160 -0.337900 0 CHG=3 VAL=6
M  V30 2 O 0.911100 -0.023900 -2.082820 0
M  V30 3 N -1.026550 0.103900 -0.343090 0
M  V30 4 C -1.770890 -1.038290 -0.364950 0
M  V30 5 N 0.732640 2.060490 -0.134080 0
M  V30 6 N 0.926250 -0.002650 1.774990 0
M  V30 7 N 0.473330 -2.051720 -0.109350 0
M  V30 8 C -2.980240 1.460850 -0.327630 0
M  V30 9 H -3.470780 2.428610 -0.357900 0
M  V30 10 C -1.618400 1.338250 -0.389190 0
M  V30 11 C -0.632990 2.442010 -0.644010 0
M  V30 12 H -0.551640 2.581860 -1.727480 0
M  V30 13 H -0.945390 3.399970 -0.216380 0
M  V30 14 C 1.776530 2.771810 -0.936990 0
M  V30 15 H 1.613370 3.853930 -0.874160 0
M  V30 16 H 2.759760 2.531050 -0.536590 0
M  V30 17 H 1.714740 2.440480 -1.973620 0
M  V30 18 C 0.878130 2.398450 1.332760 0
M  V30 19 H 1.942090 2.525690 1.532350 0
M  V30 20 H 0.397170 3.360310 1.539630 0
M  V30 21 C 0.289500 1.291800 2.190210 0
M  V30 22 H -0.789950 1.208540 2.055990 0
M  V30 23 H 0.477500 1.484360 3.252630 0
M  V30 24 C 2.311690 -0.076640 2.357780 0
M  V30 25 H 2.234510 -0.058150 3.450000 0
M  V30 26 H 2.807400 -0.992380 2.046480 0
M  V30 27 H 2.911190 0.766090 2.023870 0
M  V30 28 C 0.149150 -1.211230 2.208490 0
M  V30 29 H 0.321980 -1.413270 3.271700 0
M  V30 30 H -0.914850 -1.005620 2.081120 0
M  V30 31 C 0.600730 -2.386500 1.359120 0
M  V30 32 H 0.021470 -3.288190 1.584880 0
M  V30 33 H 1.647380 -2.626170 1.546600 0
M  V30 34 C 1.407510 -2.897440 -0.917700 0
M  V30 35 H 1.371070 -2.572790 -1.957650 0
M  V30 36 H 2.419330 -2.775370 -0.535250 0
M  V30 37 H 1.112990 -3.950190 -0.837570 0
M  V30 38 C -3.785900 0.281240 -0.258830 0
M  V30 39 C -3.144750 -0.993480 -0.305280 0
M  V30 40 H -3.720210 -1.911740 -0.321940 0
M  V30 41 C -0.937410 -2.267430 -0.591930 0
M  V30 42 H -1.364110 -3.163950 -0.130910 0
M  V30 43 H -0.892900 -2.449120 -1.671490 0
M  V30 44 O -5.068060 0.477990 -0.186950 0
M  V30 45 C -6.038440 -0.617230 -0.148300 0
M  V30 46 H -7.005170 -0.123230 -0.075750 0
M  V30 47 H -5.971810 -1.194460 -1.074220 0
M  V30 48 H -5.856420 -1.236520 0.733850 0
M  V30 49 N 2.844810 -0.139200 -0.434610 0
M  V30 50 C 3.948880 -0.208100 -0.781040 0
M  V30 51 C 5.333470 -0.294670 -1.212890 0
M  V30 52 H 5.815160 -1.169980 -0.760890 0
M  V30 53 H 5.369000 -0.389130 -2.305460 0
M  V30 54 H 5.878000 0.608800 -0.913370 0
M  V30 55 H 0.083530 0.031830 -2.599550 0
M  V30 END ATOM
M  V30 BEGIN BOND
M  V30 1 1 55 2
M  V30 2 1 53 51
M  V30 3 1 2 1
M  V30 4 1 17 14
M  V30 5 1 35 34
M  V30 6 1 12 11
M  V30 7 1 43 41
M  V30 8 1 51 54
M  V30 9 1 51 50
M  V30 10 1 51 52
M  V30 11 1 47 45
M  V30 12 1 14 15
M  V30 13 1 14 16
M  V30 14 1 14 5
M  V30 15 1 34 37
M  V30 16 1 34 36
M  V30 17 1 34 7
M  V30 18 3 50 49
M  V30 19 1 11 10
M  V30 20 1 11 13
M  V30 21 1 11 5
M  V30 22 1 41 4
M  V30 23 1 41 42
M  V30 24 1 41 7
M  V30 25 2 10 3
M  V30 26 1 10 8
M  V30 27 1 4 3
M  V30 28 2 4 39
M  V30 29 1 9 8
M  V30 30 2 8 38
M  V30 31 1 40 39
M  V30 32 1 39 38
M  V30 33 1 38 44
M  V30 34 1 44 45
M  V30 35 1 45 46
M  V30 36 1 45 48
M  V30 37 1 5 18
M  V30 38 1 7 31
M  V30 39 1 18 19
M  V30 40 1 18 20
M  V30 41 1 18 21
M  V30 42 1 31 33
M  V30 43 1 31 32
M  V30 44 1 31 28
M  V30 45 1 6 21
M  V30 46 1 6 28
M  V30 47 1 6 24
M  V30 48 1 27 24
M  V30 49 1 26 24
M  V30 50 1 22 21
M  V30 51 1 30 28
M  V30 52 1 21 23
M  V30 53 1 28 29
M  V30 54 1 24 25
M  V30 55 9 3 1
M  V30 56 9 5 1
M  V30 57 9 6 1
M  V30 58 9 7 1
M  V30 59 9 49 1
M  V30 END BOND
M  V30 END CTAB
M  END
