
     RDKit          3D

  0  0  0  0  0  0  0  0  0  0999 V3000
M  V30 BEGIN CTAB
M  V30 COUNTS 52 56 0 0 0
M  V30 BEGIN ATOM
M  V30 1 Fe 0.644480 0.003790 -0.297070 0 CHG=3 VAL=6
M  V30 2 N -1.208340 0.100860 -0.278420 0
M  V30 3 C -1.938210 -1.047550 -0.340910 0
M  V30 4 N 0.531420 2.074430 -0.116120 0
M  V30 5 N 0.747040 0.027640 1.814100 0
M  V30 6 N 0.312040 -2.037340 -0.060830 0
M  V30 7 C -3.175100 1.435040 -0.362310 0
M  V30 8 H -3.674260 2.396440 -0.428750 0
M  V30 9 C -1.810670 1.324500 -0.372920 0
M  V30 10 C -0.835760 2.431010 -0.640700 0
M  V30 11 H -0.751380 2.530160 -1.727860 0
M  V30 12 H -1.156130 3.397470 -0.238770 0
M  V30 13 C 1.560250 2.806020 -0.918340 0
M  V30 14 H 1.390460 3.886110 -0.839520 0
M  V30 15 H 2.552100 2.573140 -0.532400 0
M  V30 16 H 1.483300 2.500210 -1.961940 0
M  V30 17 C 0.670610 2.426510 1.347820 0
M  V30 18 H 1.732800 2.570820 1.547560 0
M  V30 19 H 0.175690 3.383250 1.545700 0
M  V30 20 C 0.098060 1.320870 2.217070 0
M  V30 21 H -0.980320 1.224430 2.086130 0
M  V30 22 H 0.287030 1.526880 3.276780 0
M  V30 23 C 2.127350 -0.034940 2.405140 0
M  V30 24 H 2.046670 -0.013920 3.497010 0
M  V30 25 H 2.631360 -0.949380 2.101170 0
M  V30 26 H 2.722890 0.812580 2.074170 0
M  V30 27 C -0.029440 -1.180740 2.252100 0
M  V30 28 H 0.141870 -1.377520 3.316550 0
M  V30 29 H -1.092770 -0.976350 2.121050 0
M  V30 30 C 0.422680 -2.362080 1.411550 0
M  V30 31 H -0.164350 -3.258720 1.637420 0
M  V30 32 H 1.466130 -2.607150 1.611800 0
M  V30 33 C 1.253020 -2.894790 -0.846450 0
M  V30 34 H 1.202770 -2.609510 -1.897470 0
M  V30 35 H 2.266110 -2.756890 -0.470230 0
M  V30 36 H 0.971790 -3.948690 -0.737960 0
M  V30 37 C -3.969420 0.246950 -0.312150 0
M  V30 38 C -3.313420 -1.020820 -0.332860 0
M  V30 39 H -3.877120 -1.945260 -0.379050 0
M  V30 40 C -1.088100 -2.261610 -0.569660 0
M  V30 41 H -1.508120 -3.173940 -0.134150 0
M  V30 42 H -1.022560 -2.406570 -1.653230 0
M  V30 43 O -5.255640 0.429860 -0.288350 0
M  V30 44 C -6.216480 -0.674190 -0.286160 0
M  V30 45 H -7.189670 -0.189330 -0.245720 0
M  V30 46 H -6.111370 -1.247330 -1.211140 0
M  V30 47 H -6.058390 -1.294950 0.599620 0
M  V30 48 O 0.549950 -0.015610 -2.051320 0
M  V30 49 H 1.413430 -0.060410 -2.507940 0
M  V30 50 N 2.608040 -0.100100 -0.408970 0
M  V30 51 C 3.770530 -0.162770 -0.634090 0
M  V30 52 S 5.369010 -0.247820 -0.922430 0
M  V30 END ATOM
M  V30 BEGIN BOND
M  V30 1 1 49 48
M  V30 2 1 48 1
M  V30 3 1 16 13
M  V30 4 1 34 33
M  V30 5 1 11 10
M  V30 6 1 42 40
M  V30 7 1 46 44
M  V30 8 2 52 51
M  V30 9 1 13 14
M  V30 10 1 13 15
M  V30 11 1 13 4
M  V30 12 1 33 36
M  V30 13 1 33 35
M  V30 14 1 33 6
M  V30 15 1 10 9
M  V30 16 1 10 12
M  V30 17 1 10 4
M  V30 18 2 51 50
M  V30 19 1 40 3
M  V30 20 1 40 41
M  V30 21 1 40 6
M  V30 22 1 8 7
M  V30 23 1 50 1
M  V30 24 1 39 38
M  V30 25 1 9 7
M  V30 26 2 9 2
M  V30 27 2 7 37
M  V30 28 2 3 38
M  V30 29 1 3 2
M  V30 30 1 38 37
M  V30 31 1 37 43
M  V30 32 1 43 44
M  V30 33 1 44 45
M  V30 34 1 44 47
M  V30 35 1 4 17
M  V30 36 1 6 30
M  V30 37 1 17 19
M  V30 38 1 17 18
M  V30 39 1 17 20
M  V30 40 1 30 32
M  V30 41 1 30 31
M  V30 42 1 30 27
M  V30 43 1 5 20
M  V30 44 1 5 27
M  V30 45 1 5 23
M  V30 46 1 26 23
M  V30 47 1 21 20
M  V30 48 1 25 23
M  V30 49 1 29 27
M  V30 50 1 20 22
M  V30 51 1 27 28
M  V30 52 1 23 24
M  V30 53 9 2 1
M  V30 54 9 4 1
M  V30 55 9 5 1
M  V30 56 9 6 1
M  V30 END BOND
M  V30 END CTAB
M  END
