
     RDKit          3D

  0  0  0  0  0  0  0  0  0  0999 V3000
M  V30 BEGIN CTAB
M  V30 COUNTS 52 54 0 0 0
M  V30 BEGIN ATOM
M  V30 1 Fe 1.190700 0.201300 0.065900 0 CHG=3 VAL=4
M  V30 2 N -0.749300 -0.485500 -0.125700 0 RAD=2 VAL=2
M  V30 3 C -1.484700 -0.783200 0.976000 0 RAD=2 VAL=3
M  V30 4 N 0.684100 0.676600 -2.035300 0
M  V30 5 N -0.446600 3.012200 0.100200 0
M  V30 6 N 0.352400 0.431600 2.102900 0
M  V30 7 C -2.571600 -1.123100 -1.538000 0
M  V30 8 H -3.009800 -1.253000 -2.522500 0
M  V30 9 C -1.297100 -0.642100 -1.364200 0
M  V30 10 C -0.364200 -0.284500 -2.496800 0
M  V30 11 H 0.143500 -1.196100 -2.829500 0
M  V30 12 H -0.908100 0.109100 -3.363600 0
M  V30 13 C 1.953700 0.478400 -2.805300 0
M  V30 14 H 1.802900 0.681500 -3.872100 0
M  V30 15 H 2.716200 1.151600 -2.410300 0
M  V30 16 H 2.286700 -0.553700 -2.681200 0
M  V30 17 C 0.269300 2.104000 -2.177200 0
M  V30 18 H 1.159900 2.712100 -2.021900 0
M  V30 19 H -0.075200 2.269400 -3.205800 0
M  V30 20 C -0.867500 2.604800 -1.245700 0
M  V30 21 H -1.677300 1.881800 -1.156900 0
M  V30 22 H -1.272000 3.512200 -1.717200 0
M  V30 23 C 0.344700 4.225100 0.231800 0
M  V30 24 H -0.356800 5.077500 0.241400 0
M  V30 25 H 0.903800 4.224100 1.167200 0
M  V30 26 H 1.021500 4.341100 -0.614200 0
M  V30 27 C -1.065800 2.458600 1.310700 0
M  V30 28 H -1.542700 3.311000 1.815800 0
M  V30 29 H -1.848700 1.761100 1.015700 0
M  V30 30 C -0.083600 1.839800 2.341600 0
M  V30 31 H -0.581600 1.893300 3.318000 0
M  V30 32 H 0.818700 2.448100 2.393500 0
M  V30 33 C 1.486100 0.126900 3.033600 0
M  V30 34 H 1.838600 -0.888500 2.842700 0
M  V30 35 H 2.298400 0.830000 2.843000 0
M  V30 36 H 1.169400 0.207400 4.080200 0
M  V30 37 C -3.338700 -1.482000 -0.392000 0
M  V30 38 C -2.771000 -1.278100 0.896000 0
M  V30 39 H -3.325600 -1.509000 1.798000 0
M  V30 40 C -0.752600 -0.558800 2.279200 0
M  V30 41 H -1.434200 -0.251800 3.081400 0
M  V30 42 H -0.304100 -1.507700 2.592300 0
M  V30 43 O -4.531500 -1.957200 -0.631000 0
M  V30 44 C -5.426300 -2.389100 0.436300 0
M  V30 45 H -6.312500 -2.756400 -0.077300 0
M  V30 46 H -4.956000 -3.193100 1.009200 0
M  V30 47 H -5.680600 -1.536800 1.072600 0
M  V30 48 O 2.118900 1.738400 0.238100 0
M  V30 49 H 3.077700 1.898100 0.295800 0
M  V30 50 N 2.321300 -1.490100 0.050400 0
M  V30 51 C 3.048100 -2.429300 0.042500 0
M  V30 52 S 4.048900 -3.710300 0.032400 0
M  V30 END ATOM
M  V30 BEGIN BOND
M  V30 1 1 1 50
M  V30 2 1 1 48
M  V30 3 1 3 2
M  V30 4 1 3 40
M  V30 5 1 4 13
M  V30 6 1 5 23
M  V30 7 1 5 27
M  V30 8 1 6 40
M  V30 9 1 6 30
M  V30 10 1 6 33
M  V30 11 2 7 9
M  V30 12 1 7 37
M  V30 13 1 8 7
M  V30 14 1 9 2
M  V30 15 1 10 4
M  V30 16 1 10 9
M  V30 17 1 11 10
M  V30 18 1 12 10
M  V30 19 1 13 16
M  V30 20 1 13 15
M  V30 21 1 14 13
M  V30 22 1 17 4
M  V30 23 1 17 18
M  V30 24 1 17 20
M  V30 25 1 19 17
M  V30 26 1 20 21
M  V30 27 1 20 5
M  V30 28 1 22 20
M  V30 29 1 23 24
M  V30 30 1 23 25
M  V30 31 1 26 23
M  V30 32 1 27 28
M  V30 33 1 27 30
M  V30 34 1 29 27
M  V30 35 1 30 32
M  V30 36 1 30 31
M  V30 37 1 33 36
M  V30 38 1 34 33
M  V30 39 1 35 33
M  V30 40 2 37 38
M  V30 41 1 38 3
M  V30 42 1 38 39
M  V30 43 1 40 42
M  V30 44 1 40 41
M  V30 45 1 43 37
M  V30 46 1 43 44
M  V30 47 1 44 46
M  V30 48 1 44 47
M  V30 49 1 45 44
M  V30 50 1 48 49
M  V30 51 2 51 50
M  V30 52 2 52 51
M  V30 53 9 4 1
M  V30 54 9 6 1
M  V30 END BOND
M  V30 END CTAB
M  END
