
     RDKit          3D

  0  0  0  0  0  0  0  0  0  0999 V3000
M  V30 BEGIN CTAB
M  V30 COUNTS 64 70 0 0 0
M  V30 BEGIN ATOM
M  V30 1 Fe -0.421900 -0.047280 -0.029770 0 CHG=2 VAL=7
M  V30 2 N -2.560380 0.059110 -0.260340 0
M  V30 3 C -3.155340 1.260190 -0.394390 0
M  V30 4 O 1.307510 -1.142810 0.275110 0
M  V30 5 N -1.191750 -2.226480 0.362220 0
M  V30 6 N -0.758090 0.152740 2.119060 0
M  V30 7 N -0.883420 2.217190 -0.030490 0
M  V30 8 C -4.699280 -1.008920 -0.251630 0
M  V30 9 H -5.276920 -1.926270 -0.203740 0
M  V30 10 C -3.308810 -1.061620 -0.214970 0
M  V30 11 C -2.549230 -2.353990 -0.218350 0
M  V30 12 H -2.427370 -2.651210 -1.266240 0
M  V30 13 H -3.114220 -3.153150 0.279280 0
M  V30 14 C -0.346780 -3.311570 -0.215060 0
M  V30 15 H -0.827960 -4.284810 -0.055420 0
M  V30 16 H 0.633190 -3.308470 0.253490 0
M  V30 17 H -0.224470 -3.130310 -1.283930 0
M  V30 18 C -1.181240 -2.297380 1.850210 0
M  V30 19 H -0.157570 -2.527250 2.149020 0
M  V30 20 H -1.815580 -3.122650 2.201200 0
M  V30 21 C -1.637870 -0.997060 2.507810 0
M  V30 22 H -2.661610 -0.755600 2.222960 0
M  V30 23 H -1.620440 -1.115040 3.598260 0
M  V30 24 C 0.502790 0.117750 2.914790 0
M  V30 25 H 0.264330 0.208900 3.980800 0
M  V30 26 H 1.152360 0.936590 2.614150 0
M  V30 27 H 1.022750 -0.821500 2.737430 0
M  V30 28 C -1.441160 1.476300 2.300440 0
M  V30 29 H -1.379370 1.776440 3.353650 0
M  V30 30 H -2.496900 1.351390 2.059360 0
M  V30 31 C -0.804170 2.547690 1.423340 0
M  V30 32 H -1.281560 3.516960 1.621000 0
M  V30 33 H 0.254660 2.650210 1.664170 0
M  V30 34 C 0.062440 3.083580 -0.797220 0
M  V30 35 H 0.102730 2.733700 -1.829280 0
M  V30 36 H 1.056370 3.021240 -0.366340 0
M  V30 37 H -0.288430 4.123040 -0.772370 0
M  V30 38 C 2.122440 -0.157900 0.251790 0
M  V30 39 C -4.541700 1.385310 -0.434840 0
M  V30 40 H -4.993580 2.366990 -0.533540 0
M  V30 41 C -2.237190 2.428260 -0.598710 0
M  V30 42 H -2.680050 3.356660 -0.215460 0
M  V30 43 H -2.118170 2.552630 -1.680830 0
M  V30 44 O 1.667120 1.003440 0.213300 0
M  V30 45 C 3.626020 -0.474380 0.237470 0
M  V30 46 H 3.747050 -1.538860 0.460990 0
M  V30 47 C 4.107080 -0.194240 -1.206960 0
M  V30 48 H 3.888690 0.849410 -1.459800 0
M  V30 49 H 3.588360 -0.833840 -1.929550 0
M  V30 50 C 4.357930 0.384810 1.274140 0
M  V30 51 H 4.022590 0.152420 2.293270 0
M  V30 52 H 4.137240 1.441280 1.083050 0
M  V30 53 C 5.638790 -0.458910 -1.275840 0
M  V30 54 H 5.957330 -0.231340 -2.301260 0
M  V30 55 H 5.835490 -1.524210 -1.103770 0
M  V30 56 C 5.886320 0.121390 1.175260 0
M  V30 57 H 6.387840 0.763680 1.908110 0
M  V30 58 H 6.099120 -0.917500 1.456550 0
M  V30 59 C 6.379810 0.393330 -0.248740 0
M  V30 60 H 6.264610 1.458000 -0.489520 0
M  V30 61 H 7.456270 0.167840 -0.300580 0
M  V30 62 C -5.324980 0.233950 -0.355970 0
M  V30 63 H -6.408100 0.303340 -0.381270 0
M  V30 64 Br -0.168740 -0.218910 -2.416160 0
M  V30 END ATOM
M  V30 BEGIN BOND
M  V30 1 1 54 53
M  V30 2 1 49 47
M  V30 3 1 35 34
M  V30 4 1 43 41
M  V30 5 1 48 47
M  V30 6 1 17 14
M  V30 7 1 53 47
M  V30 8 1 53 55
M  V30 9 1 53 59
M  V30 10 1 12 11
M  V30 11 1 47 45
M  V30 12 1 34 37
M  V30 13 1 34 36
M  V30 14 1 34 7
M  V30 15 1 41 3
M  V30 16 1 41 42
M  V30 17 1 41 7
M  V30 18 1 40 39
M  V30 19 1 60 59
M  V30 20 1 39 3
M  V30 21 2 39 62
M  V30 22 2 3 2
M  V30 23 1 63 62
M  V30 24 1 62 8
M  V30 25 1 61 59
M  V30 26 1 2 10
M  V30 27 2 8 10
M  V30 28 1 8 9
M  V30 29 1 59 56
M  V30 30 1 11 10
M  V30 31 1 11 13
M  V30 32 1 11 5
M  V30 33 1 14 15
M  V30 34 1 14 16
M  V30 35 1 14 5
M  V30 36 1 7 31
M  V30 37 1 1 4
M  V30 38 2 44 38
M  V30 39 1 45 38
M  V30 40 1 45 46
M  V30 41 1 45 50
M  V30 42 1 38 4
M  V30 43 1 5 18
M  V30 44 1 52 50
M  V30 45 1 56 50
M  V30 46 1 56 58
M  V30 47 1 56 57
M  V30 48 1 50 51
M  V30 49 1 31 32
M  V30 50 1 31 33
M  V30 51 1 31 28
M  V30 52 1 18 19
M  V30 53 1 18 20
M  V30 54 1 18 21
M  V30 55 1 30 28
M  V30 56 1 6 28
M  V30 57 1 6 21
M  V30 58 1 6 24
M  V30 59 1 22 21
M  V30 60 1 28 29
M  V30 61 1 21 23
M  V30 62 1 26 24
M  V30 63 1 27 24
M  V30 64 1 24 25
M  V30 65 1 1 64
M  V30 66 9 2 1
M  V30 67 9 5 1
M  V30 68 9 6 1
M  V30 69 9 7 1
M  V30 70 9 44 1
M  V30 END BOND
M  V30 END CTAB
M  END
