
     RDKit          3D

  0  0  0  0  0  0  0  0  0  0999 V3000
M  V30 BEGIN CTAB
M  V30 COUNTS 57 61 0 0 0
M  V30 BEGIN ATOM
M  V30 1 Fe 0.729700 0.019750 0.043540 0 CHG=2 VAL=6
M  V30 2 N -1.172510 0.054310 -0.124230 0
M  V30 3 C -1.966300 0.154770 0.966690 0
M  V30 4 N 0.570880 -0.644880 -2.113310 0
M  V30 5 N 0.613130 -2.229630 0.282590 0
M  V30 6 N 0.165340 -0.109800 2.222230 0
M  V30 7 C -3.067200 0.013140 -1.566420 0
M  V30 8 H -3.503450 -0.029580 -2.558230 0
M  V30 9 C -1.707500 0.005040 -1.378010 0
M  V30 10 C -0.698070 0.033390 -2.497110 0
M  V30 11 H -0.453190 1.081490 -2.692710 0
M  V30 12 H -1.108550 -0.394400 -3.419850 0
M  V30 13 C 1.701190 -0.124770 -2.921390 0
M  V30 14 H 1.537640 -0.308330 -3.991160 0
M  V30 15 H 2.621110 -0.621700 -2.609010 0
M  V30 16 H 1.797960 0.946010 -2.737350 0
M  V30 17 C 0.474340 -2.131370 -2.188320 0
M  V30 18 H 1.480050 -2.519400 -2.355690 0
M  V30 19 H -0.128540 -2.432360 -3.054400 0
M  V30 20 C -0.120050 -2.727270 -0.913750 0
M  V30 21 H -1.169640 -2.449780 -0.810220 0
M  V30 22 H -0.072900 -3.823000 -0.963830 0
M  V30 23 C 1.962970 -2.854100 0.350620 0
M  V30 24 H 1.868780 -3.946960 0.367290 0
M  V30 25 H 2.485970 -2.524460 1.245920 0
M  V30 26 H 2.560380 -2.556660 -0.509930 0
M  V30 27 C -0.132300 -2.480830 1.548420 0
M  V30 28 H 0.001730 -3.520810 1.871370 0
M  V30 29 H -1.197170 -2.334510 1.352690 0
M  V30 30 C 0.349160 -1.525720 2.635460 0
M  V30 31 H -0.180650 -1.726320 3.576000 0
M  V30 32 H 1.413120 -1.673720 2.830290 0
M  V30 33 C 1.024910 0.795510 3.027240 0
M  V30 34 H 0.895480 1.815140 2.663920 0
M  V30 35 H 2.066700 0.494020 2.903490 0
M  V30 36 H 0.759640 0.746220 4.091050 0
M  V30 37 C -3.923910 0.098320 -0.438610 0
M  V30 38 C -3.346240 0.163470 0.847120 0
M  V30 39 H -3.956020 0.236100 1.739090 0
M  V30 40 C -1.264330 0.311910 2.290020 0
M  V30 41 H -1.792380 -0.232060 3.082610 0
M  V30 42 H -1.293410 1.375580 2.532920 0
M  V30 43 O -5.215840 0.105190 -0.698370 0
M  V30 44 C -6.184620 0.219720 0.370660 0
M  V30 45 H -7.153860 0.214920 -0.124660 0
M  V30 46 H -6.042920 1.161080 0.910190 0
M  V30 47 H -6.105200 -0.636550 1.047620 0
M  V30 48 O 0.894430 1.746740 -0.561290 0
M  V30 49 O -0.453150 2.794960 0.912030 0
M  V30 50 C 0.282770 2.839640 -0.054770 0
M  V30 51 C 0.633220 4.091210 -0.823770 0
M  V30 52 H 1.708730 4.282340 -0.744290 0
M  V30 53 H 0.401640 3.964080 -1.886120 0
M  V30 54 H 0.076090 4.935260 -0.415300 0
M  V30 55 N 2.643410 -0.043590 0.348370 0
M  V30 56 C 3.776360 0.268900 0.166890 0
M  V30 57 S 5.324950 0.668710 -0.033000 0
M  V30 END ATOM
M  V30 BEGIN BOND
M  V30 1 1 14 13
M  V30 2 1 12 10
M  V30 3 1 19 17
M  V30 4 1 13 16
M  V30 5 1 13 15
M  V30 6 1 13 4
M  V30 7 1 11 10
M  V30 8 1 8 7
M  V30 9 1 10 4
M  V30 10 1 10 9
M  V30 11 1 18 17
M  V30 12 1 17 4
M  V30 13 1 17 20
M  V30 14 1 53 51
M  V30 15 1 7 9
M  V30 16 2 7 37
M  V30 17 2 9 2
M  V30 18 1 22 20
M  V30 19 1 20 21
M  V30 20 1 20 5
M  V30 21 1 51 52
M  V30 22 1 51 54
M  V30 23 1 51 50
M  V30 24 1 43 37
M  V30 25 1 43 44
M  V30 26 1 48 50
M  V30 27 1 48 1
M  V30 28 1 26 23
M  V30 29 1 37 38
M  V30 30 1 45 44
M  V30 31 1 2 3
M  V30 32 2 50 49
M  V30 33 2 57 56
M  V30 34 1 1 55
M  V30 35 2 56 55
M  V30 36 1 5 23
M  V30 37 1 5 27
M  V30 38 1 23 24
M  V30 39 1 23 25
M  V30 40 1 44 46
M  V30 41 1 44 47
M  V30 42 2 38 3
M  V30 43 1 38 39
M  V30 44 1 3 40
M  V30 45 1 29 27
M  V30 46 1 27 28
M  V30 47 1 27 30
M  V30 48 1 6 40
M  V30 49 1 6 30
M  V30 50 1 6 33
M  V30 51 1 40 42
M  V30 52 1 40 41
M  V30 53 1 30 32
M  V30 54 1 30 31
M  V30 55 1 34 33
M  V30 56 1 35 33
M  V30 57 1 33 36
M  V30 58 9 2 1
M  V30 59 9 4 1
M  V30 60 9 5 1
M  V30 61 9 6 1
M  V30 END BOND
M  V30 END CTAB
M  END
