
     RDKit          3D

  0  0  0  0  0  0  0  0  0  0999 V3000
M  V30 BEGIN CTAB
M  V30 COUNTS 55 59 0 0 0
M  V30 BEGIN ATOM
M  V30 1 Fe 1.125490 0.597300 0.065050 0 CHG=2 VAL=6
M  V30 2 N -0.889260 0.275720 -0.129830 0
M  V30 3 C -1.671210 0.235480 0.969940 0
M  V30 4 N 0.885630 -0.222000 -2.101670 0
M  V30 5 N 0.708140 -2.774110 0.037840 0
M  V30 6 N 0.465650 -0.205050 2.151330 0
M  V30 7 C -2.803930 0.129000 -1.542210 0
M  V30 8 H -3.253780 0.082710 -2.528080 0
M  V30 9 C -1.441590 0.222430 -1.368910 0
M  V30 10 C -0.445380 0.315540 -2.501660 0
M  V30 11 H -0.300820 1.375720 -2.729500 0
M  V30 12 H -0.822050 -0.173060 -3.409450 0
M  V30 13 C 1.961320 0.365390 -2.963730 0
M  V30 14 H 1.842460 0.033090 -4.002500 0
M  V30 15 H 2.930030 0.042970 -2.579340 0
M  V30 16 H 1.909340 1.449650 -2.912980 0
M  V30 17 C 0.985030 -1.693450 -2.250170 0
M  V30 18 H 2.038160 -1.957160 -2.144740 0
M  V30 19 H 0.677140 -1.972640 -3.267340 0
M  V30 20 C 0.143220 -2.572340 -1.295960 0
M  V30 21 H -0.876330 -2.204800 -1.194370 0
M  V30 22 H 0.101940 -3.570210 -1.756340 0
M  V30 23 C 1.881230 -3.632240 0.155450 0
M  V30 24 H 1.531640 -4.676800 0.125070 0
M  V30 25 H 2.395070 -3.453020 1.099000 0
M  V30 26 H 2.567770 -3.459600 -0.672330 0
M  V30 27 C -0.103080 -2.563530 1.236450 0
M  V30 28 H -0.231210 -3.558000 1.687970 0
M  V30 29 H -1.084230 -2.200010 0.936440 0
M  V30 30 C 0.537170 -1.674990 2.328050 0
M  V30 31 H 0.039800 -1.947810 3.269220 0
M  V30 32 H 1.591340 -1.935960 2.429940 0
M  V30 33 C 1.350690 0.393510 3.201850 0
M  V30 34 H 1.311510 1.477020 3.127790 0
M  V30 35 H 2.375650 0.067190 3.020040 0
M  V30 36 H 1.029200 0.073910 4.200940 0
M  V30 37 C -3.644990 0.113050 -0.400930 0
M  V30 38 C -3.050500 0.147650 0.882710 0
M  V30 39 H -3.648790 0.115520 1.784990 0
M  V30 40 C -0.918670 0.329760 2.278400 0
M  V30 41 H -1.466880 -0.160020 3.093770 0
M  V30 42 H -0.825820 1.390430 2.529730 0
M  V30 43 O -4.939870 0.042760 -0.640230 0
M  V30 44 C -5.896010 0.053580 0.445560 0
M  V30 45 H -6.871450 0.018710 -0.036290 0
M  V30 46 H -5.797850 0.974690 1.028040 0
M  V30 47 H -5.760500 -0.827620 1.080470 0
M  V30 48 O 1.035300 2.383820 1.135560 0
M  V30 49 O 1.287810 2.366950 -1.004350 0
M  V30 50 C 1.205000 3.065300 0.066020 0
M  V30 51 C 1.332800 4.548240 0.067430 0
M  V30 52 H 0.965810 4.964490 -0.873400 0
M  V30 53 H 0.806950 4.977970 0.922530 0
M  V30 54 H 2.397500 4.801080 0.157380 0
M  V30 55 Cl 3.022460 -0.578980 0.261220 0
M  V30 END ATOM
M  V30 BEGIN BOND
M  V30 1 1 14 13
M  V30 2 1 12 10
M  V30 3 1 19 17
M  V30 4 1 13 16
M  V30 5 1 13 15
M  V30 6 1 13 4
M  V30 7 1 11 10
M  V30 8 1 8 7
M  V30 9 1 10 4
M  V30 10 1 10 9
M  V30 11 1 17 18
M  V30 12 1 17 4
M  V30 13 1 17 20
M  V30 14 1 22 20
M  V30 15 1 7 9
M  V30 16 2 7 37
M  V30 17 2 9 2
M  V30 18 1 20 21
M  V30 19 1 20 5
M  V30 20 2 49 50
M  V30 21 1 52 51
M  V30 22 1 26 23
M  V30 23 1 43 37
M  V30 24 1 43 44
M  V30 25 1 37 38
M  V30 26 1 2 3
M  V30 27 1 45 44
M  V30 28 1 5 23
M  V30 29 1 5 27
M  V30 30 1 1 55
M  V30 31 1 1 48
M  V30 32 1 50 51
M  V30 33 1 50 48
M  V30 34 1 51 54
M  V30 35 1 51 53
M  V30 36 1 24 23
M  V30 37 1 23 25
M  V30 38 1 44 46
M  V30 39 1 44 47
M  V30 40 2 38 3
M  V30 41 1 38 39
M  V30 42 1 29 27
M  V30 43 1 3 40
M  V30 44 1 27 28
M  V30 45 1 27 30
M  V30 46 1 6 40
M  V30 47 1 6 30
M  V30 48 1 6 33
M  V30 49 1 40 42
M  V30 50 1 40 41
M  V30 51 1 30 32
M  V30 52 1 30 31
M  V30 53 1 35 33
M  V30 54 1 34 33
M  V30 55 1 33 36
M  V30 56 9 2 1
M  V30 57 9 4 1
M  V30 58 9 6 1
M  V30 59 9 49 1
M  V30 END BOND
M  V30 END CTAB
M  END
