
     RDKit          3D

  0  0  0  0  0  0  0  0  0  0999 V3000
M  V30 BEGIN CTAB
M  V30 COUNTS 64 69 0 0 0
M  V30 BEGIN ATOM
M  V30 1 Fe 0.190820 -0.363440 0.090530 0 CHG=2 VAL=6
M  V30 2 N 0.799970 1.615090 0.097640 0
M  V30 3 C 0.781140 2.307850 -1.058290 0
M  V30 4 N 1.332190 -0.124610 2.107870 0
M  V30 5 N 3.571120 -0.423380 -0.339050 0
M  V30 6 N 0.799550 0.059730 -2.122940 0
M  V30 7 C 1.352030 3.570640 1.333920 0
M  V30 8 H 1.581000 4.044650 2.282900 0
M  V30 9 C 1.080480 2.206680 1.275530 0
M  V30 10 C 1.035800 1.290790 2.476190 0
M  V30 11 H 0.013990 1.309050 2.866860 0
M  V30 12 H 1.702320 1.645470 3.272970 0
M  V30 13 C 0.727970 -1.044880 3.126710 0
M  V30 14 H 1.183940 -0.875410 4.109930 0
M  V30 15 H 0.898140 -2.075490 2.813820 0
M  V30 16 H -0.343100 -0.866800 3.177340 0
M  V30 17 C 2.787150 -0.418420 2.083090 0
M  V30 18 H 2.897560 -1.502150 2.023100 0
M  V30 19 H 3.233540 -0.094830 3.033450 0
M  V30 20 C 3.628820 0.237750 0.966420 0
M  V30 21 H 3.381760 1.290180 0.837520 0
M  V30 22 H 4.676640 0.174160 1.292550 0
M  V30 23 C 4.328100 -1.664120 -0.492040 0
M  V30 24 H 5.388990 -1.394360 -0.616540 0
M  V30 25 H 3.991440 -2.212140 -1.371410 0
M  V30 26 H 4.218400 -2.290610 0.392480 0
M  V30 27 C 3.309710 0.354400 -1.552200 0
M  V30 28 H 4.244360 0.336780 -2.130650 0
M  V30 29 H 3.110200 1.386760 -1.270450 0
M  V30 30 C 2.214120 -0.210780 -2.482910 0
M  V30 31 H 2.415290 0.203660 -3.480380 0
M  V30 32 H 2.328330 -1.293790 -2.550490 0
M  V30 33 C -0.041470 -0.780300 -3.037380 0
M  V30 34 H -1.091100 -0.615360 -2.808510 0
M  V30 35 H 0.193720 -1.830980 -2.864940 0
M  V30 36 H 0.160730 -0.521260 -4.084030 0
M  V30 37 C 1.043790 3.674540 -1.067500 0
M  V30 38 H 1.031480 4.229820 -1.999790 0
M  V30 39 C 0.424660 1.495140 -2.280850 0
M  V30 40 H 0.863750 1.927170 -3.189420 0
M  V30 41 H -0.663690 1.526000 -2.391290 0
M  V30 42 O -1.408580 -0.133310 1.390750 0
M  V30 43 O -1.660660 -0.117890 -0.745140 0
M  V30 44 C -2.229630 -0.053690 0.407990 0
M  V30 45 C -4.330470 -1.351120 0.306150 0
M  V30 46 H -4.068320 -1.661370 -0.713840 0
M  V30 47 H -3.902290 -2.086980 0.997030 0
M  V30 48 C -3.701440 0.052730 0.572980 0
M  V30 49 H -3.890540 0.324180 1.618400 0
M  V30 50 C -5.857260 -1.283390 0.459620 0
M  V30 51 H -6.104850 -1.058430 1.506140 0
M  V30 52 H -6.279400 -2.270620 0.241140 0
M  V30 53 C -6.471780 -0.217740 -0.459010 0
M  V30 54 H -7.554450 -0.167080 -0.302610 0
M  V30 55 H -6.318060 -0.508750 -1.507960 0
M  V30 56 C -5.839710 1.160400 -0.215220 0
M  V30 57 H -6.088230 1.506400 0.797770 0
M  V30 58 H -6.251640 1.900850 -0.909790 0
M  V30 59 C -4.312260 1.114650 -0.372680 0
M  V30 60 H -3.873930 2.098820 -0.162030 0
M  V30 61 H -4.050770 0.854270 -1.406420 0
M  V30 62 C 1.322680 4.310020 0.147040 0
M  V30 63 H 1.529880 5.375760 0.166580 0
M  V30 64 Br 1.085520 -2.621230 -0.120510 0
M  V30 END ATOM
M  V30 BEGIN BOND
M  V30 1 1 36 33
M  V30 2 1 31 30
M  V30 3 1 40 39
M  V30 4 1 33 35
M  V30 5 1 33 34
M  V30 6 1 33 6
M  V30 7 1 32 30
M  V30 8 1 30 6
M  V30 9 1 30 27
M  V30 10 1 41 39
M  V30 11 1 39 6
M  V30 12 1 39 3
M  V30 13 1 28 27
M  V30 14 1 38 37
M  V30 15 1 27 29
M  V30 16 1 27 5
M  V30 17 1 55 53
M  V30 18 1 61 59
M  V30 19 1 25 23
M  V30 20 1 37 3
M  V30 21 2 37 62
M  V30 22 2 3 2
M  V30 23 1 58 56
M  V30 24 2 43 44
M  V30 25 1 46 45
M  V30 26 1 24 23
M  V30 27 1 23 5
M  V30 28 1 23 26
M  V30 29 1 53 54
M  V30 30 1 53 56
M  V30 31 1 53 50
M  V30 32 1 59 56
M  V30 33 1 59 60
M  V30 34 1 59 48
M  V30 35 1 5 20
M  V30 36 1 56 57
M  V30 37 1 64 1
M  V30 38 1 1 42
M  V30 39 1 2 9
M  V30 40 1 62 63
M  V30 41 1 62 7
M  V30 42 1 52 50
M  V30 43 1 45 50
M  V30 44 1 45 48
M  V30 45 1 45 47
M  V30 46 1 44 48
M  V30 47 1 44 42
M  V30 48 1 50 51
M  V30 49 1 48 49
M  V30 50 1 21 20
M  V30 51 1 20 22
M  V30 52 1 20 17
M  V30 53 2 9 7
M  V30 54 1 9 10
M  V30 55 1 7 8
M  V30 56 1 18 17
M  V30 57 1 17 4
M  V30 58 1 17 19
M  V30 59 1 4 10
M  V30 60 1 4 13
M  V30 61 1 10 11
M  V30 62 1 10 12
M  V30 63 1 15 13
M  V30 64 1 13 16
M  V30 65 1 13 14
M  V30 66 9 2 1
M  V30 67 9 4 1
M  V30 68 9 6 1
M  V30 69 9 43 1
M  V30 END BOND
M  V30 END CTAB
M  END
