
     RDKit          3D

  0  0  0  0  0  0  0  0  0  0999 V3000
M  V30 BEGIN CTAB
M  V30 COUNTS 48 51 0 0 0
M  V30 BEGIN ATOM
M  V30 1 Fe 0.454900 0.000240 -0.551050 0 CHG=1 RAD=2 VAL=5
M  V30 2 N 0.027700 -2.194100 -0.184500 0
M  V30 3 N 0.548500 0.000800 1.652400 0
M  V30 4 N 0.025400 2.194400 -0.185400 0
M  V30 5 C -3.619500 -1.210600 -0.196100 0
M  V30 6 H -4.140200 -2.161700 -0.153600 0
M  V30 7 C -2.236600 -1.178400 -0.344900 0
M  V30 8 C -1.392000 -2.408200 -0.569600 0
M  V30 9 H -1.416700 -2.623100 -1.643500 0
M  V30 10 H -1.813600 -3.280700 -0.055700 0
M  V30 11 C 0.938300 -3.023400 -1.019100 0
M  V30 12 H 0.773000 -4.092500 -0.839400 0
M  V30 13 H 1.970200 -2.767400 -0.774200 0
M  V30 14 H 0.757300 -2.803700 -2.072700 0
M  V30 15 C 0.274400 -2.434900 1.265900 0
M  V30 16 H 1.341600 -2.626800 1.388100 0
M  V30 17 H -0.254500 -3.335500 1.602500 0
M  V30 18 C -0.149300 -1.238800 2.111100 0
M  V30 19 H -1.225000 -1.072500 2.038000 0
M  V30 20 H 0.083500 -1.427900 3.166100 0
M  V30 21 C 1.963800 0.001900 2.127000 0
M  V30 22 H 1.975500 0.002100 3.223200 0
M  V30 23 H 2.486400 0.878000 1.750800 0
M  V30 24 H 2.487600 -0.873700 1.751100 0
M  V30 25 C -0.151000 1.239600 2.110600 0
M  V30 26 H 0.081300 1.429400 3.165600 0
M  V30 27 H -1.226500 1.071800 2.037300 0
M  V30 28 C 0.271200 2.436000 1.265000 0
M  V30 29 H -0.259300 3.335900 1.601100 0
M  V30 30 H 1.338000 2.629600 1.387600 0
M  V30 31 C 0.935500 3.024200 -1.020000 0
M  V30 32 H 0.755200 2.803800 -2.073500 0
M  V30 33 H 1.967500 2.769600 -0.774400 0
M  V30 34 H 0.768800 4.093300 -0.840800 0
M  V30 35 C -4.315900 -0.002100 -0.112500 0 CHG=1 VAL=3
M  V30 36 C -3.620600 1.207200 -0.196800 0 RAD=2 VAL=3
M  V30 37 H -4.142400 2.157800 -0.155000 0
M  V30 38 C -1.394300 2.406600 -0.571300 0
M  V30 39 H -1.817000 3.279300 -0.058500 0
M  V30 40 H -1.418700 2.620400 -1.645500 0
M  V30 41 N -1.578900 -0.000800 -0.384400 0
M  V30 42 C -2.237800 1.176200 -0.345700 0
M  V30 43 H -5.394800 -0.002500 0.009200 0
M  V30 44 O 2.209000 0.001000 -0.573300 0 RAD=2 VAL=1
M  V30 45 H 2.738300 0.000500 -1.393700 0
M  V30 46 N 0.209200 -0.000100 -2.385300 0
M  V30 47 N 1.110200 0.000100 -3.230700 0 CHG=1 VAL=4
M  V30 48 N 1.887700 0.000200 -4.066800 0 CHG=-1 VAL=2
M  V30 END ATOM
M  V30 BEGIN BOND
M  V30 1 2 48 47
M  V30 2 2 47 46
M  V30 3 1 32 31
M  V30 4 1 14 11
M  V30 5 1 40 38
M  V30 6 1 9 8
M  V30 7 1 45 44
M  V30 8 1 31 34
M  V30 9 1 31 33
M  V30 10 1 31 4
M  V30 11 1 11 12
M  V30 12 1 11 13
M  V30 13 1 11 2
M  V30 14 1 38 42
M  V30 15 1 38 4
M  V30 16 1 38 39
M  V30 17 1 8 7
M  V30 18 1 8 2
M  V30 19 1 8 10
M  V30 20 2 41 42
M  V30 21 1 41 7
M  V30 22 1 42 36
M  V30 23 2 7 5
M  V30 24 1 36 37
M  V30 25 1 36 35
M  V30 26 1 5 6
M  V30 27 1 5 35
M  V30 28 1 4 28
M  V30 29 1 2 15
M  V30 30 1 35 43
M  V30 31 1 28 30
M  V30 32 1 28 29
M  V30 33 1 28 25
M  V30 34 1 15 16
M  V30 35 1 15 17
M  V30 36 1 15 18
M  V30 37 1 3 25
M  V30 38 1 3 18
M  V30 39 1 3 21
M  V30 40 1 23 21
M  V30 41 1 24 21
M  V30 42 1 27 25
M  V30 43 1 19 18
M  V30 44 1 25 26
M  V30 45 1 18 20
M  V30 46 1 21 22
M  V30 47 1 1 46
M  V30 48 9 2 1
M  V30 49 9 3 1
M  V30 50 9 4 1
M  V30 51 9 41 1
M  V30 END BOND
M  V30 END CTAB
M  END
