
     RDKit          3D

  0  0  0  0  0  0  0  0  0  0999 V3000
M  V30 BEGIN CTAB
M  V30 COUNTS 51 55 0 0 0
M  V30 BEGIN ATOM
M  V30 1 Fe -0.471050 0.000450 -0.519280 0 CHG=2 VAL=6
M  V30 2 N -0.008480 2.150550 -0.153010 0
M  V30 3 N -0.461420 0.000370 1.785300 0
M  V30 4 N -0.010520 -2.150280 -0.153110 0
M  V30 5 C 3.660990 1.210240 -0.310190 0
M  V30 6 H 4.186170 2.159180 -0.276840 0
M  V30 7 C 2.274300 1.172600 -0.422630 0
M  V30 8 C 1.395350 2.386770 -0.609050 0
M  V30 9 H 1.359160 2.597350 -1.683180 0
M  V30 10 H 1.818130 3.271610 -0.118230 0
M  V30 11 C -0.949820 2.983440 -0.950910 0
M  V30 12 H -0.751690 4.052830 -0.809510 0
M  V30 13 H -1.970770 2.761480 -0.633830 0
M  V30 14 H -0.844610 2.720780 -2.004320 0
M  V30 15 C -0.182490 2.414140 1.307810 0
M  V30 16 H -1.245310 2.599290 1.478170 0
M  V30 17 H 0.351160 3.327960 1.598000 0
M  V30 18 C 0.286190 1.237140 2.157730 0
M  V30 19 H 1.351080 1.057440 2.002030 0
M  V30 20 H 0.148390 1.471420 3.221180 0
M  V30 21 C -1.793560 0.001670 2.446750 0
M  V30 22 H -1.681980 0.002520 3.538240 0
M  V30 23 H -2.361910 -0.878290 2.146220 0
M  V30 24 H -2.360970 0.881740 2.144730 0
M  V30 25 C 0.283780 -1.237830 2.157860 0
M  V30 26 H 0.145100 -1.472040 3.221200 0
M  V30 27 H 1.349090 -1.060080 2.002640 0
M  V30 28 C -0.186730 -2.413700 1.307440 0
M  V30 29 H 0.344480 -3.328800 1.598110 0
M  V30 30 H -1.250180 -2.596320 1.476610 0
M  V30 31 C -0.951630 -2.982290 -0.952250 0
M  V30 32 H -0.844870 -2.719620 -2.005500 0
M  V30 33 H -1.972770 -2.759420 -0.636440 0
M  V30 34 H -0.754630 -4.051850 -0.810670 0
M  V30 35 C 4.356110 -0.001560 -0.247100 0
M  V30 36 C 3.660090 -1.212860 -0.309180 0
M  V30 37 H 4.184540 -2.162180 -0.275050 0
M  V30 38 C 1.393720 -2.388070 -0.607140 0
M  V30 39 H 1.815350 -3.272390 -0.114380 0
M  V30 40 H 1.358760 -2.600510 -1.680940 0
M  V30 41 N -2.695380 0.000440 -0.398800 0
M  V30 42 C -3.845370 0.000310 -0.544400 0
M  V30 43 C -5.290470 0.000110 -0.722290 0
M  V30 44 H -5.788000 0.001820 0.253500 0
M  V30 45 H -5.595370 -0.892490 -1.279590 0
M  V30 46 H -5.595230 0.890820 -1.282670 0
M  V30 47 O -0.589780 0.001060 -2.311200 0
M  V30 48 N 1.620780 -0.000630 -0.454630 0
M  V30 49 C 2.273390 -1.174260 -0.421670 0
M  V30 50 H 5.437730 -0.001920 -0.153180 0
M  V30 51 H -1.283350 0.001210 -2.990410 0
M  V30 END ATOM
M  V30 BEGIN BOND
M  V30 1 1 51 47
M  V30 2 1 47 1
M  V30 3 1 32 31
M  V30 4 1 14 11
M  V30 5 1 9 8
M  V30 6 1 40 38
M  V30 7 1 46 43
M  V30 8 1 45 43
M  V30 9 1 31 34
M  V30 10 1 31 33
M  V30 11 1 31 4
M  V30 12 1 11 12
M  V30 13 1 11 13
M  V30 14 1 11 2
M  V30 15 1 43 42
M  V30 16 1 43 44
M  V30 17 1 8 7
M  V30 18 1 8 2
M  V30 19 1 8 10
M  V30 20 1 38 49
M  V30 21 1 38 4
M  V30 22 1 38 39
M  V30 23 3 42 41
M  V30 24 1 48 7
M  V30 25 2 48 49
M  V30 26 2 7 5
M  V30 27 1 49 36
M  V30 28 1 5 6
M  V30 29 1 5 35
M  V30 30 1 36 37
M  V30 31 2 36 35
M  V30 32 1 35 50
M  V30 33 1 4 28
M  V30 34 1 2 15
M  V30 35 1 28 30
M  V30 36 1 28 29
M  V30 37 1 28 25
M  V30 38 1 15 16
M  V30 39 1 15 17
M  V30 40 1 15 18
M  V30 41 1 3 18
M  V30 42 1 3 25
M  V30 43 1 3 21
M  V30 44 1 19 18
M  V30 45 1 27 25
M  V30 46 1 24 21
M  V30 47 1 23 21
M  V30 48 1 18 20
M  V30 49 1 25 26
M  V30 50 1 21 22
M  V30 51 9 2 1
M  V30 52 9 3 1
M  V30 53 9 4 1
M  V30 54 9 41 1
M  V30 55 9 48 1
M  V30 END BOND
M  V30 END CTAB
M  END
