
     RDKit          3D

  0  0  0  0  0  0  0  0  0  0999 V3000
M  V30 BEGIN CTAB
M  V30 COUNTS 48 52 0 0 0
M  V30 BEGIN ATOM
M  V30 1 Fe -0.236010 -0.000020 -0.310970 0 CHG=2 VAL=6
M  V30 2 N 0.040860 2.044630 -0.118750 0
M  V30 3 N -0.242480 -0.000020 1.812700 0
M  V30 4 N 0.040960 -2.044620 -0.118720 0
M  V30 5 C 3.729400 1.211900 -0.493630 0
M  V30 6 H 4.252860 2.160730 -0.545520 0
M  V30 7 C 2.339360 1.173350 -0.458610 0
M  V30 8 C 1.414970 2.338800 -0.658810 0
M  V30 9 H 1.312160 2.477590 -1.739570 0
M  V30 10 H 1.798890 3.272860 -0.235330 0
M  V30 11 C -0.953500 2.843750 -0.894140 0
M  V30 12 H -0.718030 3.911850 -0.824460 0
M  V30 13 H -1.949500 2.665390 -0.490000 0
M  V30 14 H -0.920930 2.522940 -1.935410 0
M  V30 15 C -0.050840 2.386960 1.344660 0
M  V30 16 H -1.102530 2.569900 1.568270 0
M  V30 17 H 0.487580 3.319480 1.546390 0
M  V30 18 C 0.485570 1.246460 2.196500 0
M  V30 19 H 1.551970 1.094930 2.023460 0
M  V30 20 H 0.350390 1.468180 3.261930 0
M  V30 21 C -1.591180 -0.000070 2.457110 0
M  V30 22 H -1.479580 -0.000110 3.547260 0
M  V30 23 H -2.157500 -0.878110 2.153650 0
M  V30 24 H -2.157520 0.878000 2.153730 0
M  V30 25 C 0.485720 -1.246410 2.196510 0
M  V30 26 H 0.350590 -1.468120 3.261950 0
M  V30 27 H 1.552090 -1.094750 2.023450 0
M  V30 28 C -0.050550 -2.386990 1.344700 0
M  V30 29 H 0.488050 -3.319410 1.546370 0
M  V30 30 H -1.102180 -2.570130 1.568390 0
M  V30 31 C -0.953460 -2.843760 -0.894020 0
M  V30 32 H -0.921020 -2.522900 -1.935280 0
M  V30 33 H -1.949420 -2.665430 -0.489760 0
M  V30 34 H -0.717960 -3.911850 -0.824390 0
M  V30 35 C 4.427910 0.000070 -0.486140 0
M  V30 36 C 3.729440 -1.211790 -0.493730 0
M  V30 37 H 4.252930 -2.160600 -0.545680 0
M  V30 38 C 1.415020 -2.338730 -0.658950 0
M  V30 39 H 1.798990 -3.272840 -0.235600 0
M  V30 40 H 1.312100 -2.477400 -1.739710 0
M  V30 41 N 1.691200 0.000020 -0.377970 0
M  V30 42 C 2.339400 -1.173290 -0.458700 0
M  V30 43 H 5.513320 0.000090 -0.505240 0
M  V30 44 O -0.119290 -0.000150 -2.085300 0
M  V30 45 H -1.006580 0.000320 -2.490120 0
M  V30 46 N -2.124220 0.000010 -0.373240 0
M  V30 47 C -3.301810 -0.000040 -0.546840 0
M  V30 48 S -4.899090 -0.000030 -0.755920 0
M  V30 END ATOM
M  V30 BEGIN BOND
M  V30 1 1 45 44
M  V30 2 1 44 1
M  V30 3 1 14 11
M  V30 4 1 32 31
M  V30 5 1 40 38
M  V30 6 1 9 8
M  V30 7 1 11 12
M  V30 8 1 11 13
M  V30 9 1 11 2
M  V30 10 1 31 34
M  V30 11 1 31 33
M  V30 12 1 31 4
M  V30 13 2 48 47
M  V30 14 1 38 42
M  V30 15 1 38 39
M  V30 16 1 38 4
M  V30 17 1 8 7
M  V30 18 1 8 10
M  V30 19 1 8 2
M  V30 20 2 47 46
M  V30 21 1 37 36
M  V30 22 1 6 5
M  V30 23 1 43 35
M  V30 24 1 36 35
M  V30 25 2 36 42
M  V30 26 2 5 35
M  V30 27 1 5 7
M  V30 28 1 42 41
M  V30 29 2 7 41
M  V30 30 1 46 1
M  V30 31 1 2 15
M  V30 32 1 4 28
M  V30 33 1 15 17
M  V30 34 1 15 16
M  V30 35 1 15 18
M  V30 36 1 28 29
M  V30 37 1 28 30
M  V30 38 1 28 25
M  V30 39 1 3 18
M  V30 40 1 3 25
M  V30 41 1 3 21
M  V30 42 1 27 25
M  V30 43 1 19 18
M  V30 44 1 23 21
M  V30 45 1 24 21
M  V30 46 1 18 20
M  V30 47 1 25 26
M  V30 48 1 21 22
M  V30 49 9 2 1
M  V30 50 9 3 1
M  V30 51 9 4 1
M  V30 52 9 41 1
M  V30 END BOND
M  V30 END CTAB
M  END
