
     RDKit          3D

  0  0  0  0  0  0  0  0  0  0999 V3000
M  V30 BEGIN CTAB
M  V30 COUNTS 48 52 0 0 0
M  V30 BEGIN ATOM
M  V30 1 Fe 0.112370 -0.697000 0.000020 0 CHG=2 VAL=6
M  V30 2 N 0.275110 -0.381290 2.044310 0
M  V30 3 N 2.178410 -0.697790 -0.000100 0
M  V30 4 N 0.274890 -0.381360 -2.044300 0
M  V30 5 C -0.056390 3.318100 1.213130 0
M  V30 6 H -0.089520 3.844590 2.161270 0
M  V30 7 C -0.045240 1.927190 1.174500 0
M  V30 8 C -0.233670 1.002760 2.347950 0
M  V30 9 H -1.310730 0.922410 2.528900 0
M  V30 10 H 0.221070 1.384130 3.268350 0
M  V30 11 C -0.493940 -1.387580 2.836780 0
M  V30 12 H -0.339350 -1.222370 3.909070 0
M  V30 13 H -0.150570 -2.382890 2.556300 0
M  V30 14 H -1.554510 -1.296450 2.602450 0
M  V30 15 C 1.737610 -0.501530 2.383990 0
M  V30 16 H 1.941860 -1.558420 2.555480 0
M  V30 17 H 1.950000 0.027790 3.319190 0
M  V30 18 C 2.585670 0.026370 1.241490 0
M  V30 19 H 2.426680 1.095730 1.092170 0
M  V30 20 H 3.651310 -0.125140 1.448850 0
M  V30 21 C 2.804470 -2.061010 -0.000150 0
M  V30 22 H 3.894120 -1.949690 -0.000220 0
M  V30 23 H 2.484720 -2.624770 -0.871520 0
M  V30 24 H 2.484850 -2.624770 0.871280 0
M  V30 25 C 2.585530 0.026390 -1.241720 0
M  V30 26 H 3.651150 -0.125100 -1.449200 0
M  V30 27 H 2.426530 1.095740 -1.092370 0
M  V30 28 C 1.737360 -0.501520 -2.384140 0
M  V30 29 H 1.949620 0.027840 -3.319350 0
M  V30 30 H 1.941640 -1.558390 -2.555690 0
M  V30 31 C -0.494190 -1.387720 -2.836660 0
M  V30 32 H -1.554740 -1.296640 -2.602210 0
M  V30 33 H -0.150730 -2.383000 -2.556200 0
M  V30 34 H -0.339740 -1.222520 -3.908970 0
M  V30 35 C -0.039440 4.015310 -0.000060 0
M  V30 36 C -0.056570 3.318050 -1.213230 0
M  V30 37 H -0.089850 3.844500 -2.161380 0
M  V30 38 C -0.234010 1.002650 -2.347910 0
M  V30 39 H 0.220550 1.384010 -3.268410 0
M  V30 40 H -1.311100 0.922240 -2.528670 0
M  V30 41 N 0.011670 1.278680 -0.000010 0
M  V30 42 C -0.045410 1.927140 -1.174540 0
M  V30 43 H -0.037190 5.100950 -0.000090 0
M  V30 44 O 0.186320 -2.468390 0.000090 0
M  V30 45 H -0.709610 -2.853610 0.000000 0
M  V30 46 N -1.784030 -0.712720 0.000110 0
M  V30 47 C -2.973490 -0.733910 0.000160 0
M  V30 48 S -4.586290 -0.764990 0.000130 0
M  V30 END ATOM
M  V30 BEGIN BOND
M  V30 1 1 34 31
M  V30 2 1 29 28
M  V30 3 1 39 38
M  V30 4 1 31 32
M  V30 5 1 31 33
M  V30 6 1 31 4
M  V30 7 1 30 28
M  V30 8 1 40 38
M  V30 9 1 28 4
M  V30 10 1 28 25
M  V30 11 1 38 4
M  V30 12 1 38 42
M  V30 13 1 37 36
M  V30 14 1 26 25
M  V30 15 1 25 27
M  V30 16 1 25 3
M  V30 17 2 36 42
M  V30 18 1 36 35
M  V30 19 1 42 41
M  V30 20 1 23 21
M  V30 21 1 22 21
M  V30 22 1 21 3
M  V30 23 1 21 24
M  V30 24 1 3 18
M  V30 25 1 43 35
M  V30 26 2 35 5
M  V30 27 2 41 7
M  V30 28 1 45 44
M  V30 29 1 1 44
M  V30 30 1 1 46
M  V30 31 2 46 47
M  V30 32 2 48 47
M  V30 33 1 19 18
M  V30 34 1 7 5
M  V30 35 1 7 8
M  V30 36 1 5 6
M  V30 37 1 18 20
M  V30 38 1 18 15
M  V30 39 1 2 8
M  V30 40 1 2 15
M  V30 41 1 2 11
M  V30 42 1 8 9
M  V30 43 1 8 10
M  V30 44 1 15 16
M  V30 45 1 15 17
M  V30 46 1 13 11
M  V30 47 1 14 11
M  V30 48 1 11 12
M  V30 49 9 2 1
M  V30 50 9 3 1
M  V30 51 9 4 1
M  V30 52 9 41 1
M  V30 END BOND
M  V30 END CTAB
M  END
