
     RDKit          3D

  0  0  0  0  0  0  0  0  0  0999 V3000
M  V30 BEGIN CTAB
M  V30 COUNTS 48 51 0 0 0
M  V30 BEGIN ATOM
M  V30 1 Fe 0.554160 0.000190 -0.451870 0 CHG=1 RAD=2 VAL=5
M  V30 2 N 0.112800 -2.190800 -0.104200 0
M  V30 3 N 0.513100 -0.001200 1.765900 0
M  V30 4 N 0.113700 2.190900 -0.101200 0
M  V30 5 C -3.529700 -1.207900 -0.373900 0
M  V30 6 H -4.053000 -2.158500 -0.376000 0
M  V30 7 C -2.139300 -1.175600 -0.415100 0
M  V30 8 C -1.278400 -2.402500 -0.585700 0
M  V30 9 H -1.228700 -2.610400 -1.659900 0
M  V30 10 H -1.730700 -3.278900 -0.105700 0
M  V30 11 C 1.067100 -3.019200 -0.889400 0
M  V30 12 H 0.842800 -4.087300 -0.781600 0
M  V30 13 H 2.080600 -2.826700 -0.534500 0
M  V30 14 H 0.996100 -2.736900 -1.941400 0
M  V30 15 C 0.261100 -2.436900 1.358000 0
M  V30 16 H 1.317500 -2.629300 1.552500 0
M  V30 17 H -0.289600 -3.337800 1.657000 0
M  V30 18 C -0.219600 -1.241300 2.172500 0
M  V30 19 H -1.286500 -1.072500 2.021100 0
M  V30 20 H -0.064300 -1.430800 3.241400 0
M  V30 21 C 1.881900 -0.001300 2.363100 0
M  V30 22 H 1.799300 -0.001800 3.456000 0
M  V30 23 H 2.436000 0.876900 2.038500 0
M  V30 24 H 2.436200 -0.879100 2.037700 0
M  V30 25 C -0.220100 1.238000 2.174100 0
M  V30 26 H -0.065200 1.426000 3.243400 0
M  V30 27 H -1.286900 1.069100 2.022200 0
M  V30 28 C 0.260300 2.435100 1.361600 0
M  V30 29 H -0.291500 3.335100 1.661200 0
M  V30 30 H 1.316300 2.628300 1.557500 0
M  V30 31 C 1.069200 3.019800 -0.884200 0
M  V30 32 H 0.999600 2.738600 -1.936500 0
M  V30 33 H 2.082300 2.826800 -0.528200 0
M  V30 34 H 0.845100 4.087900 -0.775600 0
M  V30 35 C -4.229200 0.001400 -0.342400 0 CHG=1 VAL=3
M  V30 36 C -3.528900 1.210400 -0.373200 0 RAD=2 VAL=3
M  V30 37 H -4.051700 2.161300 -0.374600 0
M  V30 38 C -1.276800 2.403500 -0.584100 0
M  V30 39 H -1.729000 3.280400 -0.104800 0
M  V30 40 H -1.225600 2.611100 -1.658400 0
M  V30 41 N -1.481600 0.000600 -0.398500 0
M  V30 42 C -2.138600 1.177200 -0.414300 0
M  V30 43 H -5.314300 0.001800 -0.304700 0
M  V30 44 O 0.409600 0.002300 -2.213100 0 RAD=2 VAL=1
M  V30 45 H 1.188900 -0.002400 -2.801600 0
M  V30 46 N 2.385900 -0.000400 -0.392600 0
M  V30 47 N 3.162900 0.002300 -1.351700 0 CHG=1 VAL=4
M  V30 48 N 3.935500 0.005200 -2.191200 0 CHG=-1 VAL=2
M  V30 END ATOM
M  V30 BEGIN BOND
M  V30 1 1 45 44
M  V30 2 2 48 47
M  V30 3 1 14 11
M  V30 4 1 32 31
M  V30 5 1 9 8
M  V30 6 1 40 38
M  V30 7 2 47 46
M  V30 8 1 11 12
M  V30 9 1 11 13
M  V30 10 1 11 2
M  V30 11 1 31 34
M  V30 12 1 31 33
M  V30 13 1 31 4
M  V30 14 1 8 7
M  V30 15 1 8 10
M  V30 16 1 8 2
M  V30 17 1 38 42
M  V30 18 1 38 39
M  V30 19 1 38 4
M  V30 20 1 7 41
M  V30 21 2 7 5
M  V30 22 2 42 41
M  V30 23 1 42 36
M  V30 24 1 6 5
M  V30 25 1 37 36
M  V30 26 1 5 35
M  V30 27 1 36 35
M  V30 28 1 35 43
M  V30 29 1 2 15
M  V30 30 1 4 28
M  V30 31 1 15 16
M  V30 32 1 15 17
M  V30 33 1 15 18
M  V30 34 1 28 30
M  V30 35 1 28 29
M  V30 36 1 28 25
M  V30 37 1 3 18
M  V30 38 1 3 25
M  V30 39 1 3 21
M  V30 40 1 19 18
M  V30 41 1 27 25
M  V30 42 1 24 21
M  V30 43 1 23 21
M  V30 44 1 18 20
M  V30 45 1 25 26
M  V30 46 1 21 22
M  V30 47 1 1 46
M  V30 48 9 2 1
M  V30 49 9 3 1
M  V30 50 9 4 1
M  V30 51 9 41 1
M  V30 END BOND
M  V30 END CTAB
M  END
