
     RDKit          3D

  0  0  0  0  0  0  0  0  0  0999 V3000
M  V30 BEGIN CTAB
M  V30 COUNTS 46 50 0 0 0
M  V30 BEGIN ATOM
M  V30 1 Fe -0.705300 0.000180 -0.547350 0 CHG=2 VAL=6
M  V30 2 N -0.375370 2.181430 -0.125380 0
M  V30 3 N -1.145410 0.000610 1.633450 0
M  V30 4 N -0.377230 -2.181120 -0.125350 0
M  V30 5 C 3.231350 1.208340 0.409580 0
M  V30 6 H 3.741900 2.158730 0.526190 0
M  V30 7 C 1.887830 1.180020 0.052240 0
M  V30 8 C 1.085020 2.399570 -0.317550 0
M  V30 9 H 1.253960 2.583860 -1.384430 0
M  V30 10 H 1.424640 3.288900 0.226520 0
M  V30 11 C -1.169780 2.997820 -1.087320 0
M  V30 12 H -1.017120 4.067550 -0.900740 0
M  V30 13 H -2.225190 2.750670 -0.967420 0
M  V30 14 H -0.862030 2.753380 -2.104450 0
M  V30 15 C -0.818890 2.431420 1.277530 0
M  V30 16 H -1.890580 2.632630 1.249140 0
M  V30 17 H -0.333370 3.331150 1.674910 0
M  V30 18 C -0.523690 1.239870 2.183140 0
M  V30 19 H 0.550960 1.074080 2.272130 0
M  V30 20 H -0.911150 1.436710 3.190370 0
M  V30 21 C -2.618170 0.001530 1.871130 0
M  V30 22 H -2.808040 0.001830 2.950920 0
M  V30 23 H -3.074660 -0.873990 1.415510 0
M  V30 24 H -3.073610 0.877430 1.415190 0
M  V30 25 C -0.525220 -1.239440 2.183130 0
M  V30 26 H -0.913090 -1.435910 3.190280 0
M  V30 27 H 0.549600 -1.074920 2.272310 0
M  V30 28 C -0.821670 -2.430550 1.277340 0
M  V30 29 H -0.337580 -3.330980 1.674890 0
M  V30 30 H -1.893630 -2.630260 1.248470 0
M  V30 31 C -1.171930 -2.996900 -1.087570 0
M  V30 32 H -0.863530 -2.752830 -2.104580 0
M  V30 33 H -2.227180 -2.748820 -0.968150 0
M  V30 34 H -1.020290 -4.066750 -0.900810 0
M  V30 35 C 3.905010 -0.001570 0.599330 0
M  V30 36 C 3.230340 -1.210970 0.409970 0
M  V30 37 H 3.740080 -2.161760 0.526870 0
M  V30 38 C 1.083050 -2.400650 -0.316780 0
M  V30 39 H 1.421650 -3.289960 0.227960 0
M  V30 40 H 1.252300 -2.585760 -1.383460 0
M  V30 41 N 1.243040 -0.000560 -0.081870 0
M  V30 42 C 1.886830 -1.181620 0.052630 0
M  V30 43 H 4.953480 -0.001970 0.881610 0
M  V30 44 O -2.426900 0.000650 -0.839390 0
M  V30 45 H -2.696900 0.000730 -1.780810 0
M  V30 46 Cl -0.139010 0.000150 -2.685240 0
M  V30 END ATOM
M  V30 BEGIN BOND
M  V30 1 1 46 1
M  V30 2 1 32 31
M  V30 3 1 14 11
M  V30 4 1 45 44
M  V30 5 1 9 8
M  V30 6 1 40 38
M  V30 7 1 31 33
M  V30 8 1 31 34
M  V30 9 1 31 4
M  V30 10 1 11 13
M  V30 11 1 11 12
M  V30 12 1 11 2
M  V30 13 1 44 1
M  V30 14 1 8 2
M  V30 15 1 8 7
M  V30 16 1 8 10
M  V30 17 1 38 4
M  V30 18 1 38 42
M  V30 19 1 38 39
M  V30 20 1 2 15
M  V30 21 1 4 28
M  V30 22 1 41 7
M  V30 23 2 41 42
M  V30 24 2 7 5
M  V30 25 1 42 36
M  V30 26 1 5 6
M  V30 27 1 5 35
M  V30 28 1 36 37
M  V30 29 2 36 35
M  V30 30 1 35 43
M  V30 31 1 30 28
M  V30 32 1 16 15
M  V30 33 1 28 29
M  V30 34 1 28 25
M  V30 35 1 15 17
M  V30 36 1 15 18
M  V30 37 1 24 21
M  V30 38 1 23 21
M  V30 39 1 3 21
M  V30 40 1 3 25
M  V30 41 1 3 18
M  V30 42 1 21 22
M  V30 43 1 25 27
M  V30 44 1 25 26
M  V30 45 1 18 19
M  V30 46 1 18 20
M  V30 47 9 2 1
M  V30 48 9 3 1
M  V30 49 9 4 1
M  V30 50 9 41 1
M  V30 END BOND
M  V30 END CTAB
M  END
