
     RDKit          3D

  0  0  0  0  0  0  0  0  0  0999 V3000
M  V30 BEGIN CTAB
M  V30 COUNTS 46 50 0 0 0
M  V30 BEGIN ATOM
M  V30 1 Fe 0.640630 -0.000140 -0.571540 0 CHG=2 VAL=6
M  V30 2 N 0.251250 -2.183800 -0.191380 0
M  V30 3 N 0.909780 -0.000290 1.617260 0
M  V30 4 N 0.252130 2.183770 -0.191430 0
M  V30 5 C -3.401460 -1.208520 0.032130 0
M  V30 6 H -3.921320 -2.159500 0.088650 0
M  V30 7 C -2.026390 -1.175320 -0.177010 0
M  V30 8 C -1.194890 -2.399280 -0.465770 0
M  V30 9 H -1.299820 -2.611330 -1.535110 0
M  V30 10 H -1.567580 -3.275820 0.077860 0
M  V30 11 C 1.080790 -3.014170 -1.110540 0
M  V30 12 H 0.861620 -4.079260 -0.968470 0
M  V30 13 H 2.135640 -2.826770 -0.911320 0
M  V30 14 H 0.858960 -2.727760 -2.139660 0
M  V30 15 C 0.611330 -2.431680 1.234380 0
M  V30 16 H 1.687650 -2.606880 1.273680 0
M  V30 17 H 0.122640 -3.342490 1.602500 0
M  V30 18 C 0.231170 -1.244700 2.109260 0
M  V30 19 H -0.845870 -1.076540 2.097360 0
M  V30 20 H 0.524990 -1.433620 3.148420 0
M  V30 21 C 2.336580 -0.001250 2.077120 0
M  V30 22 H 2.351030 -0.001690 3.172840 0
M  V30 23 H 2.856930 0.878280 1.705680 0
M  V30 24 H 2.856000 -0.881010 1.704960 0
M  V30 25 C 0.232800 1.245020 2.109270 0
M  V30 26 H 0.527290 1.433850 3.148270 0
M  V30 27 H -0.844450 1.078080 2.097900 0
M  V30 28 C 0.613900 2.431340 1.233920 0
M  V30 29 H 0.126930 3.342950 1.602350 0
M  V30 30 H 1.690530 2.604890 1.272150 0
M  V30 31 C 1.081120 3.013740 -1.111450 0
M  V30 32 H 0.858310 2.727180 -2.140330 0
M  V30 33 H 2.136090 2.826120 -0.913110 0
M  V30 34 H 0.862350 4.078910 -0.969400 0
M  V30 35 C -4.092070 0.000660 0.150610 0
M  V30 36 C -3.401070 1.209660 0.032900 0
M  V30 37 H -3.920600 2.160790 0.090030 0
M  V30 38 C -1.194200 2.400090 -0.464230 0
M  V30 39 H -1.566050 3.276080 0.080860 0
M  V30 40 H -1.300090 2.613610 -1.533180 0
M  V30 41 N -1.371610 0.000340 -0.231050 0
M  V30 42 C -2.025980 1.176130 -0.176270 0
M  V30 43 H -5.164780 0.000780 0.318750 0
M  V30 44 O 0.203120 -0.000440 -2.279100 0
M  V30 45 H 0.961310 -0.000430 -2.898250 0
M  V30 46 Cl 2.784140 -0.000110 -0.955910 0
M  V30 END ATOM
M  V30 BEGIN BOND
M  V30 1 1 45 44
M  V30 2 1 44 1
M  V30 3 1 32 31
M  V30 4 1 14 11
M  V30 5 1 9 8
M  V30 6 1 40 38
M  V30 7 1 31 34
M  V30 8 1 31 33
M  V30 9 1 31 4
M  V30 10 1 11 12
M  V30 11 1 11 13
M  V30 12 1 11 2
M  V30 13 1 46 1
M  V30 14 1 8 2
M  V30 15 1 8 7
M  V30 16 1 8 10
M  V30 17 1 38 4
M  V30 18 1 38 42
M  V30 19 1 38 39
M  V30 20 1 41 7
M  V30 21 2 41 42
M  V30 22 1 4 28
M  V30 23 1 2 15
M  V30 24 2 7 5
M  V30 25 1 42 36
M  V30 26 1 5 6
M  V30 27 1 5 35
M  V30 28 1 36 37
M  V30 29 2 36 35
M  V30 30 1 35 43
M  V30 31 1 28 30
M  V30 32 1 28 29
M  V30 33 1 28 25
M  V30 34 1 15 16
M  V30 35 1 15 17
M  V30 36 1 15 18
M  V30 37 1 3 21
M  V30 38 1 3 18
M  V30 39 1 3 25
M  V30 40 1 24 21
M  V30 41 1 23 21
M  V30 42 1 21 22
M  V30 43 1 19 18
M  V30 44 1 27 25
M  V30 45 1 18 20
M  V30 46 1 25 26
M  V30 47 9 2 1
M  V30 48 9 3 1
M  V30 49 9 4 1
M  V30 50 9 41 1
M  V30 END BOND
M  V30 END CTAB
M  END
