
     RDKit          3D

  0  0  0  0  0  0  0  0  0  0999 V3000
M  V30 BEGIN CTAB
M  V30 COUNTS 46 50 0 0 0
M  V30 BEGIN ATOM
M  V30 1 Fe -0.645550 -0.000010 -0.545580 0 CHG=2 VAL=6
M  V30 2 N -0.389330 2.031470 -0.347740 0
M  V30 3 N -1.226860 -0.000010 1.443610 0
M  V30 4 N -0.389280 -2.031470 -0.347730 0
M  V30 5 C 3.258340 1.214040 0.339320 0
M  V30 6 H 3.781120 2.161420 0.419150 0
M  V30 7 C 1.909590 1.178200 0.005700 0
M  V30 8 C 1.078450 2.335950 -0.466480 0
M  V30 9 H 1.298180 2.470030 -1.530850 0
M  V30 10 H 1.312930 3.276490 0.042590 0
M  V30 11 C -1.135950 2.761480 -1.418180 0
M  V30 12 H -0.948040 3.837830 -1.336690 0
M  V30 13 H -2.199930 2.557750 -1.302930 0
M  V30 14 H -0.796020 2.388560 -2.384990 0
M  V30 15 C -0.915540 2.386320 1.019070 0
M  V30 16 H -1.986770 2.559350 0.915400 0
M  V30 17 H -0.466080 3.325020 1.359930 0
M  V30 18 C -0.646860 1.258750 2.009130 0
M  V30 19 H 0.422840 1.111350 2.165930 0
M  V30 20 H -1.098430 1.488470 2.980660 0
M  V30 21 C -2.714340 -0.000070 1.649960 0
M  V30 22 H -2.917440 -0.000090 2.725850 0
M  V30 23 H -3.161530 -0.874350 1.185190 0
M  V30 24 H -3.161590 0.874180 1.185210 0
M  V30 25 C -0.646760 -1.258730 2.009150 0
M  V30 26 H -1.098290 -1.488450 2.980690 0
M  V30 27 H 0.422930 -1.111240 2.165920 0
M  V30 28 C -0.915380 -2.386340 1.019130 0
M  V30 29 H -0.465810 -3.324980 1.359990 0
M  V30 30 H -1.986600 -2.559480 0.915520 0
M  V30 31 C -1.135960 -2.761510 -1.418120 0
M  V30 32 H -0.796100 -2.388600 -2.384950 0
M  V30 33 H -2.199940 -2.557800 -1.302790 0
M  V30 34 H -0.948030 -3.837850 -1.336620 0
M  V30 35 C 3.926950 0.000030 0.536890 0
M  V30 36 C 3.258360 -1.213980 0.339260 0
M  V30 37 H 3.781170 -2.161360 0.419060 0
M  V30 38 C 1.078490 -2.335910 -0.466580 0
M  V30 39 H 1.313030 -3.276470 0.042400 0
M  V30 40 H 1.298170 -2.469890 -1.530980 0
M  V30 41 N 1.262290 0.000020 -0.075810 0
M  V30 42 C 1.909620 -1.178160 0.005650 0
M  V30 43 H 4.978680 0.000040 0.806710 0
M  V30 44 O -2.326440 -0.000010 -0.995120 0
M  V30 45 H -2.395120 -0.000020 -1.972390 0
M  V30 46 F -0.137700 -0.000020 -2.236740 0
M  V30 END ATOM
M  V30 BEGIN BOND
M  V30 1 1 14 11
M  V30 2 1 32 31
M  V30 3 1 46 1
M  V30 4 1 45 44
M  V30 5 1 40 38
M  V30 6 1 9 8
M  V30 7 1 11 12
M  V30 8 1 11 13
M  V30 9 1 11 2
M  V30 10 1 31 34
M  V30 11 1 31 33
M  V30 12 1 31 4
M  V30 13 1 44 1
M  V30 14 1 38 4
M  V30 15 1 38 42
M  V30 16 1 38 39
M  V30 17 1 8 2
M  V30 18 1 8 7
M  V30 19 1 8 10
M  V30 20 1 2 15
M  V30 21 1 4 28
M  V30 22 2 41 42
M  V30 23 1 41 7
M  V30 24 1 42 36
M  V30 25 2 7 5
M  V30 26 1 36 37
M  V30 27 2 36 35
M  V30 28 1 5 6
M  V30 29 1 5 35
M  V30 30 1 35 43
M  V30 31 1 16 15
M  V30 32 1 30 28
M  V30 33 1 15 17
M  V30 34 1 15 18
M  V30 35 1 28 29
M  V30 36 1 28 25
M  V30 37 1 23 21
M  V30 38 1 24 21
M  V30 39 1 3 21
M  V30 40 1 3 18
M  V30 41 1 3 25
M  V30 42 1 21 22
M  V30 43 1 18 19
M  V30 44 1 18 20
M  V30 45 1 25 27
M  V30 46 1 25 26
M  V30 47 9 2 1
M  V30 48 9 3 1
M  V30 49 9 4 1
M  V30 50 9 41 1
M  V30 END BOND
M  V30 END CTAB
M  END
