
     RDKit          3D

  0  0  0  0  0  0  0  0  0  0999 V3000
M  V30 BEGIN CTAB
M  V30 COUNTS 89 96 0 0 0
M  V30 BEGIN ATOM
M  V30 1 Fe 0.515710 0.100600 -0.256730 0 CHG=1 RAD=2 VAL=5
M  V30 2 O -0.216800 1.890000 -0.330200 0 RAD=2 VAL=1
M  V30 3 S -1.551600 2.474700 -0.976000 0
M  V30 4 N 0.903200 -0.021300 2.021900 0
M  V30 5 N 1.997700 -0.748700 2.383500 0
M  V30 6 C 1.873200 -1.204500 3.654800 0
M  V30 7 C 0.655600 -0.747800 4.142400 0
M  V30 8 C 0.089300 0.001300 3.093700 0
M  V30 9 C 2.919100 -2.034100 4.331800 0
M  V30 10 H 3.872500 -1.499100 4.406100 0
M  V30 11 H 3.110200 -2.963700 3.784200 0
M  V30 12 H 2.590300 -2.292400 5.342100 0
M  V30 13 H 0.257000 -0.886700 5.137100 0
M  V30 14 N 2.552900 0.867200 -0.226800 0
M  V30 15 N 3.452600 0.342600 0.656000 0
M  V30 16 C 4.474200 1.211400 0.857300 0
M  V30 17 C 4.230700 2.331900 0.074300 0
M  V30 18 C 3.019400 2.076700 -0.594300 0
M  V30 19 C 5.623900 0.924000 1.771800 0
M  V30 20 H 5.291900 0.797600 2.808700 0
M  V30 21 H 6.337000 1.752300 1.740100 0
M  V30 22 H 6.148900 0.006200 1.484700 0
M  V30 23 H 4.863700 3.200600 -0.035600 0
M  V30 24 N 1.427000 -2.026300 -0.136600 0
M  V30 25 N 2.699200 -2.049200 0.358700 0
M  V30 26 C 3.421300 -3.040300 -0.220200 0
M  V30 27 C 2.583800 -3.694900 -1.114900 0
M  V30 28 C 1.345700 -3.033800 -1.024300 0
M  V30 29 C 4.855200 -3.306300 0.117000 0
M  V30 30 H 5.224400 -4.150800 -0.471400 0
M  V30 31 H 4.984000 -3.543800 1.179200 0
M  V30 32 H 5.485900 -2.436500 -0.100600 0
M  V30 33 H 2.821200 -4.557700 -1.720400 0
M  V30 34 B 3.149500 -0.987200 1.377800 0 CHG=-1 VAL=4
M  V30 35 H 4.126800 -1.362100 1.959900 0
M  V30 36 C -1.165000 0.769800 3.112900 0
M  V30 37 C -2.330200 0.214500 3.668100 0
M  V30 38 C -3.522800 0.939800 3.683500 0
M  V30 39 C -3.563100 2.233300 3.154900 0
M  V30 40 C -2.404800 2.795900 2.609900 0
M  V30 41 C -1.212600 2.070800 2.586800 0
M  V30 42 H -2.298700 -0.795300 4.069200 0
M  V30 43 H -4.420400 0.493100 4.102900 0
M  V30 44 H -4.492200 2.796500 3.161900 0
M  V30 45 H -2.430300 3.795800 2.187300 0
M  V30 46 H -0.321300 2.489000 2.133200 0
M  V30 47 C 2.319000 2.937500 -1.560000 0
M  V30 48 C 2.167800 4.307500 -1.300800 0
M  V30 49 C 1.469900 5.119700 -2.194800 0
M  V30 50 C 0.917000 4.571800 -3.355600 0
M  V30 51 C 1.079400 3.210700 -3.628500 0
M  V30 52 C 1.786700 2.401700 -2.741000 0
M  V30 53 H 2.573800 4.724200 -0.382800 0
M  V30 54 H 1.348100 6.178300 -1.979700 0
M  V30 55 H 0.362100 5.203100 -4.044700 0
M  V30 56 H 0.644800 2.770400 -4.520500 0
M  V30 57 H 1.915200 1.344600 -2.939200 0
M  V30 58 C 0.090400 -3.349500 -1.729700 0
M  V30 59 C 0.048100 -3.378000 -3.131000 0
M  V30 60 C -1.152100 -3.622400 -3.795800 0
M  V30 61 C -2.326700 -3.845400 -3.070000 0
M  V30 62 C -2.291400 -3.844400 -1.674400 0
M  V30 63 C -1.084600 -3.609000 -1.009600 0
M  V30 64 H 0.952700 -3.160900 -3.690900 0
M  V30 65 H -1.176600 -3.615200 -4.881900 0
M  V30 66 H -3.263800 -4.020500 -3.591600 0
M  V30 67 H -3.196800 -4.005800 -1.098000 0
M  V30 68 H -1.047100 -3.626100 0.076500 0
M  V30 69 C -2.691400 1.039300 -1.137300 0
M  V30 70 C -2.704700 0.157300 0.121900 0 CFG=2
M  V30 71 N -1.519800 -0.708800 0.193800 0
M  V30 72 C -3.984700 -0.675100 0.230400 0
M  V30 73 O -4.011800 -1.882200 0.349900 0
M  V30 74 O -5.073200 0.111500 0.224600 0
M  V30 75 C -6.347400 -0.557900 0.391200 0
M  V30 76 C -7.414900 0.518800 0.416200 0
M  V30 77 H -3.673800 1.502800 -1.272300 0
M  V30 78 H -2.461700 0.456600 -2.033500 0
M  V30 79 H -2.702700 0.813200 0.991300 0
M  V30 80 H -1.616700 -1.469200 -0.482700 0
M  V30 81 H -1.490800 -1.159800 1.107800 0
M  V30 82 H -6.317700 -1.136400 1.320300 0
M  V30 83 H -6.484200 -1.262300 -0.435900 0
M  V30 84 H -7.415300 1.087300 -0.519300 0
M  V30 85 H -7.241500 1.214700 1.243300 0
M  V30 86 H -8.402300 0.063000 0.545700 0
M  V30 87 N 0.222100 -0.341700 -2.183700 0
M  V30 88 N -0.370600 0.021400 -3.162300 0 CHG=1 VAL=4
M  V30 89 N -0.937400 0.333800 -4.126700 0 CHG=-1 VAL=2
M  V30 END ATOM
M  V30 BEGIN BOND
M  V30 1 1 65 60
M  V30 2 1 56 51
M  V30 3 2 89 88
M  V30 4 1 55 50
M  V30 5 2 60 59
M  V30 6 1 60 61
M  V30 7 1 64 59
M  V30 8 2 51 50
M  V30 9 1 51 52
M  V30 10 1 66 61
M  V30 11 1 50 49
M  V30 12 2 88 87
M  V30 13 1 59 58
M  V30 14 2 61 62
M  V30 15 1 57 52
M  V30 16 2 52 47
M  V30 17 1 49 54
M  V30 18 2 49 48
M  V30 19 1 78 69
M  V30 20 1 58 28
M  V30 21 2 58 63
M  V30 22 1 33 27
M  V30 23 1 62 67
M  V30 24 1 62 63
M  V30 25 1 47 48
M  V30 26 1 47 18
M  V30 27 1 48 53
M  V30 28 1 77 69
M  V30 29 1 69 3
M  V30 30 1 69 70
M  V30 31 1 27 28
M  V30 32 2 27 26
M  V30 33 2 28 24
M  V30 34 1 63 68
M  V30 35 1 3 2
M  V30 36 2 18 14
M  V30 37 1 18 17
M  V30 38 1 84 76
M  V30 39 1 80 71
M  V30 40 1 30 29
M  V30 41 1 83 75
M  V30 42 1 14 15
M  V30 43 1 26 29
M  V30 44 1 26 25
M  V30 45 1 24 25
M  V30 46 1 32 29
M  V30 47 1 23 17
M  V30 48 2 17 16
M  V30 49 1 29 31
M  V30 50 1 70 71
M  V30 51 1 70 72
M  V30 52 1 70 79 CFG=1
M  V30 53 1 71 81
M  V30 54 1 74 72
M  V30 55 1 74 75
M  V30 56 2 72 73
M  V30 57 1 25 34
M  V30 58 1 75 76
M  V30 59 1 75 82
M  V30 60 1 76 86
M  V30 61 1 76 85
M  V30 62 1 15 16
M  V30 63 1 15 34
M  V30 64 1 16 19
M  V30 65 1 34 35
M  V30 66 1 34 5
M  V30 67 1 22 19
M  V30 68 1 21 19
M  V30 69 1 19 20
M  V30 70 1 4 5
M  V30 71 2 4 8
M  V30 72 1 46 41
M  V30 73 1 45 40
M  V30 74 1 5 6
M  V30 75 2 41 40
M  V30 76 1 41 36
M  V30 77 1 40 39
M  V30 78 1 8 36
M  V30 79 1 8 7
M  V30 80 2 36 37
M  V30 81 1 39 44
M  V30 82 2 39 38
M  V30 83 2 6 7
M  V30 84 1 6 9
M  V30 85 1 37 38
M  V30 86 1 37 42
M  V30 87 1 38 43
M  V30 88 1 11 9
M  V30 89 1 7 13
M  V30 90 1 9 10
M  V30 91 1 9 12
M  V30 92 1 1 87
M  V30 93 9 4 1
M  V30 94 9 14 1
M  V30 95 9 24 1
M  V30 96 9 71 1
M  V30 END BOND
M  V30 END CTAB
M  END
