
     RDKit          3D

  0  0  0  0  0  0  0  0  0  0999 V3000
M  V30 BEGIN CTAB
M  V30 COUNTS 88 95 0 0 0
M  V30 BEGIN ATOM
M  V30 1 Fe -0.486200 0.201330 -0.162200 0 CHG=1 VAL=5
M  V30 2 O 0.806830 3.580810 0.805750 0 RAD=2 VAL=1
M  V30 3 S 1.974520 3.249750 -0.124350 0
M  V30 4 N -0.697920 -1.905730 -0.828140 0
M  V30 5 N -1.866100 -2.536200 -0.513060 0
M  V30 6 C -1.800230 -3.852540 -0.843000 0
M  V30 7 C -0.548370 -4.080470 -1.392510 0
M  V30 8 C 0.110770 -2.834740 -1.371050 0
M  V30 9 C -2.925550 -4.817320 -0.630760 0
M  V30 10 H -3.842560 -4.487390 -1.131160 0
M  V30 11 H -3.162500 -4.939320 0.432360 0
M  V30 12 H -2.649820 -5.796800 -1.031490 0
M  V30 13 H -0.175630 -5.009790 -1.798210 0
M  V30 14 N -2.633290 0.519960 -0.721490 0
M  V30 15 N -3.456190 -0.553750 -0.562190 0
M  V30 16 C -4.638160 -0.347120 -1.203190 0
M  V30 17 C -4.574330 0.904650 -1.793480 0
M  V30 18 C -3.303050 1.419040 -1.460880 0
M  V30 19 C -5.756670 -1.342160 -1.211020 0
M  V30 20 H -5.447760 -2.295070 -1.656080 0
M  V30 21 H -6.594330 -0.949750 -1.794390 0
M  V30 22 H -6.115660 -1.557980 -0.198320 0
M  V30 23 H -5.355440 1.397890 -2.353620 0
M  V30 24 N -1.430320 -0.485680 1.767050 0
M  V30 25 N -2.472750 -1.358530 1.630200 0
M  V30 26 C -2.841250 -1.849470 2.841690 0
M  V30 27 C -2.012630 -1.276930 3.794630 0
M  V30 28 C -1.149150 -0.424630 3.081920 0
M  V30 29 C -3.960240 -2.824930 3.037180 0
M  V30 30 H -4.095340 -3.017830 4.105110 0
M  V30 31 H -3.757550 -3.780870 2.541280 0
M  V30 32 H -4.904390 -2.443510 2.634070 0
M  V30 33 H -2.055330 -1.418240 4.864780 0
M  V30 34 B -2.996860 -1.786270 0.234580 0 CHG=-1 VAL=4
M  V30 35 H -3.921030 -2.529330 0.379630 0
M  V30 36 C 1.457620 -2.545180 -1.891490 0
M  V30 37 C 2.470160 -3.512600 -1.769630 0
M  V30 38 C 3.737400 -3.287980 -2.304950 0
M  V30 39 C 4.014210 -2.090370 -2.970030 0
M  V30 40 C 3.016560 -1.119300 -3.085300 0
M  V30 41 C 1.743390 -1.341910 -2.557850 0
M  V30 42 H 2.262100 -4.436930 -1.237960 0
M  V30 43 H 4.509500 -4.045370 -2.197400 0
M  V30 44 H 5.000480 -1.914730 -3.392390 0
M  V30 45 H 3.225550 -0.179370 -3.589490 0
M  V30 46 H 0.986030 -0.566030 -2.624140 0
M  V30 47 C -2.742930 2.731480 -1.816090 0
M  V30 48 C -3.102090 3.344700 -3.028500 0
M  V30 49 C -2.587350 4.593530 -3.373810 0
M  V30 50 C -1.699730 5.249390 -2.516210 0
M  V30 51 C -1.334640 4.649350 -1.308820 0
M  V30 52 C -1.857680 3.404890 -0.957880 0
M  V30 53 H -3.772800 2.826530 -3.708430 0
M  V30 54 H -2.871620 5.050120 -4.318400 0
M  V30 55 H -1.294570 6.220410 -2.788580 0
M  V30 56 H -0.640710 5.133480 -0.629750 0
M  V30 57 H -1.570790 2.951690 -0.015350 0
M  V30 58 C -0.106020 0.445690 3.642980 0
M  V30 59 C 0.123070 1.730550 3.129160 0
M  V30 60 C 1.101200 2.553100 3.690370 0
M  V30 61 C 1.863580 2.103890 4.771220 0
M  V30 62 C 1.646980 0.822080 5.286900 0
M  V30 63 C 0.670040 -0.000240 4.728420 0
M  V30 64 H -0.455770 2.086350 2.284200 0
M  V30 65 H 1.260800 3.537730 3.264380 0
M  V30 66 H 2.622700 2.746650 5.209100 0
M  V30 67 H 2.243130 0.460860 6.120650 0
M  V30 68 H 0.511170 -1.001940 5.118190 0
M  V30 69 C 2.958400 1.881410 0.638450 0
M  V30 70 C 2.666230 0.458720 0.125500 0
M  V30 71 N 1.515990 -0.172460 0.790060 0
M  V30 72 C 3.904090 -0.436320 0.248980 0
M  V30 73 O 3.929990 -1.492810 0.844010 0
M  V30 74 O 4.944800 0.076110 -0.429840 0
M  V30 75 C 6.136870 -0.744720 -0.479440 0
M  V30 76 C 7.085700 -0.089620 -1.464020 0
M  V30 77 H 3.993790 2.135850 0.390940 0
M  V30 78 H 2.828430 1.957580 1.723220 0
M  V30 79 H 2.430040 0.526520 -0.938320 0
M  V30 80 H 1.534050 0.020970 1.791030 0
M  V30 81 H 1.624710 -1.185240 0.708890 0
M  V30 82 H 5.847400 -1.752020 -0.790690 0
M  V30 83 H 6.560600 -0.808880 0.528680 0
M  V30 84 H 7.338780 0.927560 -1.147830 0
M  V30 85 H 6.628590 -0.038030 -2.457570 0
M  V30 86 H 8.011220 -0.671140 -1.535810 0
M  V30 87 O 0.340900 1.238990 -1.502800 0
M  V30 88 H -0.195720 1.924600 -1.926250 0
M  V30 END ATOM
M  V30 BEGIN BOND
M  V30 1 1 54 49
M  V30 2 1 53 48
M  V30 3 1 45 40
M  V30 4 1 44 39
M  V30 5 2 49 48
M  V30 6 1 49 50
M  V30 7 2 40 39
M  V30 8 1 40 41
M  V30 9 1 48 47
M  V30 10 1 39 38
M  V30 11 1 55 50
M  V30 12 1 46 41
M  V30 13 2 41 36
M  V30 14 2 50 51
M  V30 15 1 85 76
M  V30 16 1 23 17
M  V30 17 1 38 43
M  V30 18 2 38 37
M  V30 19 1 88 87
M  V30 20 1 36 37
M  V30 21 1 36 8
M  V30 22 1 47 18
M  V30 23 2 47 52
M  V30 24 1 13 7
M  V30 25 1 21 19
M  V30 26 1 17 18
M  V30 27 2 17 16
M  V30 28 1 37 42
M  V30 29 1 20 19
M  V30 30 1 86 76
M  V30 31 1 87 1
M  V30 32 1 76 84
M  V30 33 1 76 75
M  V30 34 2 18 14
M  V30 35 1 7 8
M  V30 36 2 7 6
M  V30 37 2 8 4
M  V30 38 1 51 52
M  V30 39 1 51 56
M  V30 40 1 19 16
M  V30 41 1 19 22
M  V30 42 1 16 15
M  V30 43 1 10 9
M  V30 44 1 12 9
M  V30 45 1 52 57
M  V30 46 1 79 70
M  V30 47 1 6 9
M  V30 48 1 6 5
M  V30 49 1 4 5
M  V30 50 1 82 75
M  V30 51 1 14 15
M  V30 52 1 9 11
M  V30 53 1 15 34
M  V30 54 1 5 34
M  V30 55 1 75 74
M  V30 56 1 75 83
M  V30 57 1 74 72
M  V30 58 1 3 69
M  V30 59 1 3 2
M  V30 60 1 70 72
M  V30 61 1 70 69
M  V30 62 1 70 71
M  V30 63 1 34 35
M  V30 64 1 34 25
M  V30 65 2 72 73
M  V30 66 1 77 69
M  V30 67 1 69 78
M  V30 68 1 81 71
M  V30 69 1 71 80
M  V30 70 1 25 24
M  V30 71 1 25 26
M  V30 72 2 24 28
M  V30 73 1 64 59
M  V30 74 1 31 29
M  V30 75 1 32 29
M  V30 76 1 26 29
M  V30 77 2 26 27
M  V30 78 1 29 30
M  V30 79 1 28 58
M  V30 80 1 28 27
M  V30 81 2 59 58
M  V30 82 1 59 60
M  V30 83 1 65 60
M  V30 84 1 58 63
M  V30 85 2 60 61
M  V30 86 1 27 33
M  V30 87 1 63 68
M  V30 88 2 63 62
M  V30 89 1 61 66
M  V30 90 1 61 62
M  V30 91 1 62 67
M  V30 92 9 4 1
M  V30 93 9 14 1
M  V30 94 9 24 1
M  V30 95 9 71 1
M  V30 END BOND
M  V30 END CTAB
M  END
