
     RDKit          3D

  0  0  0  0  0  0  0  0  0  0999 V3000
M  V30 BEGIN CTAB
M  V30 COUNTS 87 95 0 0 0
M  V30 BEGIN ATOM
M  V30 1 Fe -0.511560 0.043930 -0.134650 0 CHG=1 VAL=6
M  V30 2 O -0.201000 1.635350 1.311190 0
M  V30 3 S 0.839460 2.726280 0.968920 0
M  V30 4 N -0.590500 -1.973940 -1.130830 0
M  V30 5 N -1.668340 -2.735590 -0.780080 0
M  V30 6 C -1.447100 -4.042580 -1.071390 0
M  V30 7 C -0.181500 -4.135010 -1.631970 0
M  V30 8 C 0.318540 -2.820270 -1.655360 0
M  V30 9 C -2.444350 -5.126920 -0.804490 0
M  V30 10 H -3.396600 -4.933640 -1.310420 0
M  V30 11 H -2.658840 -5.222860 0.265900 0
M  V30 12 H -2.052810 -6.083360 -1.162040 0
M  V30 13 H 0.302930 -5.024160 -2.009150 0
M  V30 14 N -2.649750 0.340940 -0.437630 0
M  V30 15 N -3.337570 -0.825420 -0.629310 0
M  V30 16 C -4.475630 -0.594680 -1.328710 0
M  V30 17 C -4.533710 0.767200 -1.591580 0
M  V30 18 C -3.381280 1.320120 -1.003290 0
M  V30 19 C -5.445350 -1.676780 -1.688300 0
M  V30 20 H -4.962750 -2.471780 -2.267860 0
M  V30 21 H -6.258270 -1.260550 -2.289580 0
M  V30 22 H -5.880870 -2.142860 -0.796730 0
M  V30 23 H -5.325590 1.300210 -2.097640 0
M  V30 24 N -1.136320 -1.221410 1.662610 0
M  V30 25 N -2.353020 -1.805070 1.457060 0
M  V30 26 C -3.038650 -1.900520 2.622330 0
M  V30 27 C -2.230950 -1.377550 3.626700 0
M  V30 28 C -1.048780 -0.975200 2.981830 0
M  V30 29 C -4.415650 -2.480500 2.712500 0
M  V30 30 H -4.759140 -2.463400 3.750490 0
M  V30 31 H -4.441950 -3.516720 2.357100 0
M  V30 32 H -5.128800 -1.910270 2.106110 0
M  V30 33 H -2.448970 -1.334970 4.684250 0
M  V30 34 B -2.839820 -2.129750 0.021050 0 CHG=-1 VAL=4
M  V30 35 H -3.737680 -2.920880 0.070990 0
M  V30 36 C 1.650030 -2.379960 -2.109650 0
M  V30 37 C 2.794850 -3.085840 -1.696970 0
M  V30 38 C 4.068730 -2.636440 -2.047220 0
M  V30 39 C 4.215470 -1.477660 -2.815070 0
M  V30 40 C 3.081820 -0.780310 -3.241960 0
M  V30 41 C 1.806840 -1.232760 -2.902010 0
M  V30 42 H 2.679120 -3.966700 -1.071270 0
M  V30 43 H 4.944280 -3.180710 -1.704320 0
M  V30 44 H 5.207610 -1.119700 -3.078250 0
M  V30 45 H 3.182520 0.125640 -3.832540 0
M  V30 46 H 0.931220 -0.679240 -3.216100 0
M  V30 47 C -3.019660 2.741570 -0.912090 0
M  V30 48 C -3.185550 3.589190 -2.015990 0
M  V30 49 C -2.861650 4.941520 -1.922100 0
M  V30 50 C -2.372950 5.464580 -0.722360 0
M  V30 51 C -2.219650 4.627770 0.386050 0
M  V30 52 C -2.547340 3.275560 0.295080 0
M  V30 53 H -3.535650 3.173780 -2.956550 0
M  V30 54 H -2.978270 5.585370 -2.789840 0
M  V30 55 H -2.116590 6.518510 -0.651190 0
M  V30 56 H -1.852110 5.030460 1.326900 0
M  V30 57 H -2.422220 2.618860 1.147400 0
M  V30 58 C 0.186710 -0.435370 3.583790 0
M  V30 59 C 0.187290 0.787250 4.269390 0
M  V30 60 C 1.369390 1.291390 4.812150 0
M  V30 61 C 2.568810 0.583590 4.673770 0
M  V30 62 C 2.577490 -0.641640 4.002680 0
M  V30 63 C 1.389250 -1.151790 3.473450 0
M  V30 64 H -0.737480 1.350830 4.343560 0
M  V30 65 H 1.358660 2.245260 5.332980 0
M  V30 66 H 3.489260 0.983880 5.090510 0
M  V30 67 H 3.503130 -1.194720 3.876560 0
M  V30 68 H 1.384260 -2.116940 2.972910 0
M  V30 69 C 2.456380 1.868030 1.085670 0
M  V30 70 C 2.629100 0.683020 0.116750 0
M  V30 71 N 1.618990 -0.353850 0.354030 0
M  V30 72 C 4.034990 0.110810 0.308860 0
M  V30 73 O 4.290150 -0.871990 0.973370 0
M  V30 74 O 4.945620 0.845350 -0.348910 0
M  V30 75 C 6.311610 0.368150 -0.288310 0
M  V30 76 C 7.129340 1.239160 -1.222020 0
M  V30 77 H 3.216960 2.628980 0.879250 0
M  V30 78 H 2.563280 1.529160 2.122990 0
M  V30 79 H 2.521240 1.031890 -0.912160 0
M  V30 80 H 1.657540 -0.635530 1.334080 0
M  V30 81 H 1.879790 -1.181240 -0.181140 0
M  V30 82 H 6.321300 -0.684530 -0.587500 0
M  V30 83 H 6.659530 0.424980 0.748840 0
M  V30 84 H 7.086280 2.288940 -0.914760 0
M  V30 85 H 6.749870 1.165190 -2.246330 0
M  V30 86 H 8.176200 0.917060 -1.213620 0
M  V30 87 Br 0.112110 1.711990 -2.110470 0
M  V30 END ATOM
M  V30 BEGIN BOND
M  V30 1 1 45 40
M  V30 2 2 40 41
M  V30 3 1 40 39
M  V30 4 1 46 41
M  V30 5 1 44 39
M  V30 6 1 53 48
M  V30 7 1 41 36
M  V30 8 2 39 38
M  V30 9 1 54 49
M  V30 10 1 21 19
M  V30 11 1 20 19
M  V30 12 1 85 76
M  V30 13 1 87 1
M  V30 14 2 36 37
M  V30 15 1 36 8
M  V30 16 1 23 17
M  V30 17 1 38 43
M  V30 18 1 38 37
M  V30 19 2 48 49
M  V30 20 1 48 47
M  V30 21 1 13 7
M  V30 22 1 49 50
M  V30 23 1 37 42
M  V30 24 1 19 16
M  V30 25 1 19 22
M  V30 26 1 8 7
M  V30 27 2 8 4
M  V30 28 2 7 6
M  V30 29 2 17 16
M  V30 30 1 17 18
M  V30 31 1 16 15
M  V30 32 1 10 9
M  V30 33 1 76 86
M  V30 34 1 76 84
M  V30 35 1 76 75
M  V30 36 1 12 9
M  V30 37 1 4 5
M  V30 38 1 6 9
M  V30 39 1 6 5
M  V30 40 1 18 47
M  V30 41 2 18 14
M  V30 42 1 79 70
M  V30 43 2 47 52
M  V30 44 1 9 11
M  V30 45 1 5 34
M  V30 46 1 50 55
M  V30 47 2 50 51
M  V30 48 1 15 14
M  V30 49 1 15 34
M  V30 50 1 82 75
M  V30 51 1 74 75
M  V30 52 1 74 72
M  V30 53 1 75 83
M  V30 54 1 81 71
M  V30 55 1 1 2
M  V30 56 1 34 35
M  V30 57 1 34 25
M  V30 58 1 70 72
M  V30 59 1 70 71
M  V30 60 1 70 69
M  V30 61 1 52 51
M  V30 62 1 52 57
M  V30 63 2 72 73
M  V30 64 1 71 80
M  V30 65 1 51 56
M  V30 66 1 77 69
M  V30 67 1 3 69
M  V30 68 1 3 2
M  V30 69 1 69 78
M  V30 70 1 25 24
M  V30 71 1 25 26
M  V30 72 2 24 28
M  V30 73 1 32 29
M  V30 74 1 31 29
M  V30 75 1 26 29
M  V30 76 2 26 27
M  V30 77 1 29 30
M  V30 78 1 68 63
M  V30 79 1 28 58
M  V30 80 1 28 27
M  V30 81 1 63 58
M  V30 82 2 63 62
M  V30 83 2 58 59
M  V30 84 1 27 33
M  V30 85 1 67 62
M  V30 86 1 62 61
M  V30 87 1 59 64
M  V30 88 1 59 60
M  V30 89 2 61 60
M  V30 90 1 61 66
M  V30 91 1 60 65
M  V30 92 9 4 1
M  V30 93 9 14 1
M  V30 94 9 24 1
M  V30 95 9 71 1
M  V30 END BOND
M  V30 END CTAB
M  END
