
     RDKit          3D

  0  0  0  0  0  0  0  0  0  0999 V3000
M  V30 BEGIN CTAB
M  V30 COUNTS 87 95 0 0 0
M  V30 BEGIN ATOM
M  V30 1 Fe 0.511550 0.257730 -0.317850 0 CHG=1 VAL=6
M  V30 2 O 0.094170 2.084920 0.282680 0
M  V30 3 S -1.169750 2.950860 -0.148940 0
M  V30 4 N 1.040750 -0.536690 1.747960 0
M  V30 5 N 2.099920 -1.390920 1.822990 0
M  V30 6 C 2.089820 -2.057090 3.005320 0
M  V30 7 C 0.986950 -1.614690 3.723990 0
M  V30 8 C 0.363610 -0.656400 2.904280 0
M  V30 9 C 3.122900 -3.069910 3.390170 0
M  V30 10 H 4.134810 -2.653480 3.343940 0
M  V30 11 H 3.099150 -3.942320 2.727170 0
M  V30 12 H 2.938670 -3.414490 4.411550 0
M  V30 13 H 0.697150 -1.907230 4.722940 0
M  V30 14 N 2.642700 0.668920 -0.416930 0
M  V30 15 N 3.512670 -0.277840 0.046670 0
M  V30 16 C 4.779390 0.210780 0.054780 0
M  V30 17 C 4.725570 1.511240 -0.418000 0
M  V30 18 C 3.369160 1.767520 -0.702900 0
M  V30 19 C 5.969810 -0.579770 0.501380 0
M  V30 20 H 5.897100 -0.860720 1.558230 0
M  V30 21 H 6.876320 0.017390 0.368960 0
M  V30 22 H 6.081290 -1.505230 -0.074270 0
M  V30 23 H 5.560160 2.178720 -0.574500 0
M  V30 24 N 0.995510 -1.928920 -0.894310 0
M  V30 25 N 2.200800 -2.404980 -0.464110 0
M  V30 26 C 2.391270 -3.682170 -0.888810 0
M  V30 27 C 1.267970 -4.047880 -1.611230 0
M  V30 28 C 0.416400 -2.924090 -1.592690 0
M  V30 29 C 3.625650 -4.477640 -0.595460 0
M  V30 30 H 3.584960 -5.429060 -1.133220 0
M  V30 31 H 3.728930 -4.695700 0.473810 0
M  V30 32 H 4.531610 -3.946280 -0.906460 0
M  V30 33 H 1.093310 -4.986270 -2.117400 0
M  V30 34 B 3.016950 -1.626900 0.590440 0 CHG=-1 VAL=4
M  V30 35 H 3.955590 -2.285650 0.925230 0
M  V30 36 C -0.837150 0.141320 3.213960 0
M  V30 37 C -2.007580 -0.496370 3.659030 0
M  V30 38 C -3.150910 0.247170 3.957420 0
M  V30 39 C -3.133830 1.638870 3.827880 0
M  V30 40 C -1.969740 2.280300 3.394460 0
M  V30 41 C -0.828060 1.538380 3.087670 0
M  V30 42 H -2.017640 -1.579080 3.756000 0
M  V30 43 H -4.052980 -0.259970 4.289210 0
M  V30 44 H -4.023040 2.219050 4.059010 0
M  V30 45 H -1.950750 3.360370 3.283150 0
M  V30 46 H 0.066380 2.029540 2.723830 0
M  V30 47 C 2.821070 3.029710 -1.228230 0
M  V30 48 C 3.420950 4.240170 -0.838650 0
M  V30 49 C 2.959010 5.457290 -1.336400 0
M  V30 50 C 1.889650 5.484090 -2.235120 0
M  V30 51 C 1.289380 4.284950 -2.625380 0
M  V30 52 C 1.749710 3.063760 -2.133570 0
M  V30 53 H 4.240010 4.224740 -0.124700 0
M  V30 54 H 3.429750 6.383930 -1.017820 0
M  V30 55 H 1.526100 6.432010 -2.623830 0
M  V30 56 H 0.452740 4.295430 -3.319230 0
M  V30 57 H 1.254600 2.142750 -2.418590 0
M  V30 58 C -0.929310 -2.858590 -2.197210 0
M  V30 59 C -1.367420 -1.750240 -2.941100 0
M  V30 60 C -2.653290 -1.736970 -3.485280 0
M  V30 61 C -3.509810 -2.826130 -3.315880 0
M  V30 62 C -3.074150 -3.938350 -2.592240 0
M  V30 63 C -1.795330 -3.955000 -2.038050 0
M  V30 64 H -0.715300 -0.890350 -3.036730 0
M  V30 65 H -2.982060 -0.867930 -4.050240 0
M  V30 66 H -4.510870 -2.808210 -3.738520 0
M  V30 67 H -3.735610 -4.788310 -2.446840 0
M  V30 68 H -1.464640 -4.812470 -1.458000 0
M  V30 69 C -2.384200 1.741700 -0.807160 0
M  V30 70 C -2.642780 0.579050 0.174270 0
M  V30 71 N -1.579520 -0.434110 0.088480 0
M  V30 72 C -4.013050 -0.063700 -0.059680 0
M  V30 73 O -4.190490 -1.241840 -0.279790 0
M  V30 74 O -4.999410 0.846530 0.039180 0
M  V30 75 C -6.345600 0.342650 -0.140070 0
M  V30 76 C -7.286740 1.524280 -0.006300 0
M  V30 77 H -3.296840 2.325480 -0.960440 0
M  V30 78 H -2.007410 1.353870 -1.755870 0
M  V30 79 H -2.659800 0.975300 1.192000 0
M  V30 80 H -1.787680 -1.064530 -0.689580 0
M  V30 81 H -1.595600 -1.014020 0.925570 0
M  V30 82 H -6.534200 -0.426910 0.615850 0
M  V30 83 H -6.413090 -0.135010 -1.123030 0
M  V30 84 H -7.070440 2.280930 -0.767400 0
M  V30 85 H -7.188090 1.988910 0.980020 0
M  V30 86 H -8.322980 1.192450 -0.132020 0
M  V30 87 F 0.003520 0.624170 -2.075070 0
M  V30 END ATOM
M  V30 BEGIN BOND
M  V30 1 1 65 60
M  V30 2 1 66 61
M  V30 3 1 60 61
M  V30 4 2 60 59
M  V30 5 1 56 51
M  V30 6 2 61 62
M  V30 7 1 64 59
M  V30 8 1 59 58
M  V30 9 2 51 50
M  V30 10 1 51 52
M  V30 11 1 55 50
M  V30 12 1 62 67
M  V30 13 1 62 63
M  V30 14 1 57 52
M  V30 15 1 50 49
M  V30 16 2 58 63
M  V30 17 1 58 28
M  V30 18 2 52 47
M  V30 19 1 33 27
M  V30 20 1 87 1
M  V30 21 1 63 68
M  V30 22 1 78 69
M  V30 23 1 27 28
M  V30 24 2 27 26
M  V30 25 2 28 24
M  V30 26 1 49 54
M  V30 27 2 49 48
M  V30 28 1 47 48
M  V30 29 1 47 18
M  V30 30 1 30 29
M  V30 31 1 83 75
M  V30 32 1 77 69
M  V30 33 1 32 29
M  V30 34 1 24 25
M  V30 35 1 26 29
M  V30 36 1 26 25
M  V30 37 1 48 53
M  V30 38 1 69 3
M  V30 39 1 69 70
M  V30 40 1 84 76
M  V30 41 1 18 17
M  V30 42 2 18 14
M  V30 43 1 80 71
M  V30 44 1 29 31
M  V30 45 1 23 17
M  V30 46 1 25 34
M  V30 47 2 17 16
M  V30 48 1 14 15
M  V30 49 1 1 2
M  V30 50 2 73 72
M  V30 51 1 3 2
M  V30 52 1 75 76
M  V30 53 1 75 74
M  V30 54 1 75 82
M  V30 55 1 86 76
M  V30 56 1 22 19
M  V30 57 1 72 74
M  V30 58 1 72 70
M  V30 59 1 76 85
M  V30 60 1 15 16
M  V30 61 1 15 34
M  V30 62 1 16 19
M  V30 63 1 71 70
M  V30 64 1 71 81
M  V30 65 1 70 79
M  V30 66 1 21 19
M  V30 67 1 19 20
M  V30 68 1 34 35
M  V30 69 1 34 5
M  V30 70 1 4 5
M  V30 71 2 4 8
M  V30 72 1 5 6
M  V30 73 1 46 41
M  V30 74 1 11 9
M  V30 75 1 8 36
M  V30 76 1 8 7
M  V30 77 1 6 9
M  V30 78 2 6 7
M  V30 79 1 41 36
M  V30 80 2 41 40
M  V30 81 2 36 37
M  V30 82 1 45 40
M  V30 83 1 10 9
M  V30 84 1 9 12
M  V30 85 1 40 39
M  V30 86 1 37 42
M  V30 87 1 37 38
M  V30 88 1 7 13
M  V30 89 2 39 38
M  V30 90 1 39 44
M  V30 91 1 38 43
M  V30 92 9 4 1
M  V30 93 9 14 1
M  V30 94 9 24 1
M  V30 95 9 71 1
M  V30 END BOND
M  V30 END CTAB
M  END
