
     RDKit          3D

  0  0  0  0  0  0  0  0  0  0999 V3000
M  V30 BEGIN CTAB
M  V30 COUNTS 70 73 0 0 0
M  V30 BEGIN ATOM
M  V30 1 Fe 0.127710 0.322630 -0.109150 0 VAL=5
M  V30 2 N 2.693130 0.058170 0.506900 0
M  V30 3 N -2.763140 -0.193870 -0.627440 0
M  V30 4 N 0.282040 -1.140100 1.695490 0
M  V30 5 N -0.258330 -1.833230 -1.019400 0
M  V30 6 C 3.848430 0.283030 -0.161320 0
M  V30 7 C 2.728090 -0.664020 1.644560 0
M  V30 8 C 5.042430 -0.332870 0.253930 0
M  V30 9 C 3.883740 -1.289330 2.114100 0
M  V30 10 C 5.058660 -1.139230 1.385370 0
M  V30 11 C -3.953900 0.264300 -0.192600 0
M  V30 12 C -2.710530 -1.361350 -1.292130 0
M  V30 13 C -5.117310 -0.513410 -0.326770 0
M  V30 14 C -3.827950 -2.182960 -1.461880 0
M  V30 15 C -5.049060 -1.755680 -0.947580 0
M  V30 16 C -1.397750 -1.726330 -1.950330 0
M  V30 17 C 1.462890 -0.715650 2.471680 0
M  V30 18 C -0.491270 -2.814480 0.048550 0
M  V30 19 C 0.433140 -2.533170 1.227640 0
M  V30 20 C 0.961280 -2.137940 -1.785010 0
M  V30 21 C -0.935380 -0.979430 2.513520 0
M  V30 22 H 5.958450 -0.174300 -0.298940 0
M  V30 23 H 5.977970 -1.622830 1.704910 0
M  V30 24 H 3.854570 -1.872480 3.029350 0
M  V30 25 H 1.610690 -1.375250 3.342220 0
M  V30 26 H 1.255840 0.297840 2.828370 0
M  V30 27 H -6.067820 -0.148070 0.040460 0
M  V30 28 H -5.939820 -2.370110 -1.050020 0
M  V30 29 H -3.737850 -3.125840 -1.992900 0
M  V30 30 H -1.522270 -2.666490 -2.514370 0
M  V30 31 H -1.135850 -0.919870 -2.641440 0
M  V30 32 H 1.473320 -2.674580 0.924340 0
M  V30 33 H 0.235210 -3.244830 2.045660 0
M  V30 34 H -0.341110 -3.848310 -0.307110 0
M  V30 35 H -1.533540 -2.733600 0.366510 0
M  V30 36 H 0.914650 -3.143430 -2.238140 0
M  V30 37 H 1.071220 -1.386240 -2.564750 0
M  V30 38 H 1.837970 -2.072860 -1.137620 0
M  V30 39 H -1.819750 -1.166980 1.901620 0
M  V30 40 H -0.981060 0.051850 2.862330 0
M  V30 41 H -0.932030 -1.666440 3.375590 0
M  V30 42 C 3.835750 1.257550 -1.349990 0
M  V30 43 C -3.987540 1.670650 0.421510 0
M  V30 44 C 3.159120 0.594120 -2.570130 0
M  V30 45 H 3.608500 -0.383670 -2.787710 0
M  V30 46 H 2.083550 0.490370 -2.406220 0
M  V30 47 H 3.301430 1.230520 -3.452920 0
M  V30 48 C 5.266410 1.672400 -1.755080 0
M  V30 49 H 5.828970 2.092270 -0.912610 0
M  V30 50 H 5.839790 0.838850 -2.178240 0
M  V30 51 H 5.204090 2.444410 -2.529270 0
M  V30 52 C 3.065040 2.535520 -0.950850 0
M  V30 53 H 2.053030 2.315850 -0.611830 0
M  V30 54 H 3.578050 3.063950 -0.138580 0
M  V30 55 H 3.007550 3.209890 -1.813930 0
M  V30 56 C -3.110260 2.617760 -0.426650 0
M  V30 57 H -3.107650 3.617220 0.022350 0
M  V30 58 H -2.078610 2.268660 -0.475520 0
M  V30 59 H -3.503500 2.697360 -1.447930 0
M  V30 60 C -3.440340 1.602960 1.862770 0
M  V30 61 H -3.517390 2.587380 2.338710 0
M  V30 62 H -4.008190 0.883490 2.467260 0
M  V30 63 H -2.386120 1.330730 1.858430 0
M  V30 64 C -5.420720 2.238590 0.463850 0
M  V30 65 H -5.890750 2.234520 -0.526980 0
M  V30 66 H -6.068370 1.688720 1.157180 0
M  V30 67 H -5.384430 3.276120 0.812640 0
M  V30 68 O 0.103610 0.852710 -1.908710 0
M  V30 69 H 0.069310 1.814680 -2.020970 0
M  V30 70 Cl 0.091110 2.186390 1.397990 0
M  V30 END ATOM
M  V30 BEGIN BOND
M  V30 1 1 47 44
M  V30 2 1 45 44
M  V30 3 1 31 16
M  V30 4 1 44 46
M  V30 5 1 44 42
M  V30 6 1 37 20
M  V30 7 1 51 48
M  V30 8 1 30 16
M  V30 9 1 36 20
M  V30 10 1 50 48
M  V30 11 1 69 68
M  V30 12 1 29 14
M  V30 13 1 16 12
M  V30 14 1 16 5
M  V30 15 1 68 1
M  V30 16 1 55 52
M  V30 17 1 20 38
M  V30 18 1 20 5
M  V30 19 1 48 42
M  V30 20 1 48 49
M  V30 21 1 14 12
M  V30 22 2 14 15
M  V30 23 1 59 56
M  V30 24 1 42 52
M  V30 25 1 42 6
M  V30 26 2 12 3
M  V30 27 1 28 15
M  V30 28 1 5 18
M  V30 29 1 52 53
M  V30 30 1 52 54
M  V30 31 1 15 13
M  V30 32 1 3 11
M  V30 33 1 65 64
M  V30 34 1 58 56
M  V30 35 1 56 57
M  V30 36 1 56 43
M  V30 37 2 13 11
M  V30 38 1 13 27
M  V30 39 1 34 18
M  V30 40 1 22 8
M  V30 41 1 11 43
M  V30 42 1 6 8
M  V30 43 2 6 2
M  V30 44 1 1 70
M  V30 45 1 18 35
M  V30 46 1 18 19
M  V30 47 2 8 10
M  V30 48 1 43 64
M  V30 49 1 43 60
M  V30 50 1 64 67
M  V30 51 1 64 66
M  V30 52 1 2 7
M  V30 53 1 32 19
M  V30 54 1 19 4
M  V30 55 1 19 33
M  V30 56 1 10 23
M  V30 57 1 10 9
M  V30 58 2 7 9
M  V30 59 1 7 17
M  V30 60 1 4 17
M  V30 61 1 4 21
M  V30 62 1 63 60
M  V30 63 1 60 61
M  V30 64 1 60 62
M  V30 65 1 39 21
M  V30 66 1 9 24
M  V30 67 1 17 26
M  V30 68 1 17 25
M  V30 69 1 21 40
M  V30 70 1 21 41
M  V30 71 9 2 1
M  V30 72 9 4 1
M  V30 73 9 5 1
M  V30 END BOND
M  V30 END CTAB
M  END
