
     RDKit          3D

  0  0  0  0  0  0  0  0  0  0999 V3000
M  V30 BEGIN CTAB
M  V30 COUNTS 52 56 0 0 0
M  V30 BEGIN ATOM
M  V30 1 Fe -0.026960 0.079910 -0.504190 0 VAL=6
M  V30 2 N -2.513320 0.003340 -0.091920 0
M  V30 3 N 2.341060 -0.295050 -0.165550 0
M  V30 4 N -0.607350 -2.083160 0.113760 0
M  V30 5 N 0.391560 0.050680 1.807650 0
M  V30 6 C -3.438980 0.973650 0.064140 0
M  V30 7 C -2.928080 -1.261530 -0.303910 0
M  V30 8 C -4.811780 0.691460 0.003920 0
M  V30 9 C -4.277640 -1.614850 -0.344220 0
M  V30 10 C -5.237160 -0.616210 -0.195840 0
M  V30 11 C 3.245690 -0.718050 -1.071060 0
M  V30 12 C 2.763360 0.081950 1.057180 0
M  V30 13 C 4.612250 -0.777340 -0.755550 0
M  V30 14 C 4.101040 0.024990 1.441990 0
M  V30 15 C 5.045000 -0.409180 0.511730 0
M  V30 16 C 1.723070 0.656040 1.991460 0
M  V30 17 C -1.876640 -2.310590 -0.589740 0
M  V30 18 C 0.376820 -1.357190 2.258320 0
M  V30 19 C -0.735170 -2.156840 1.577380 0
M  V30 20 C -0.619430 0.864690 2.502290 0
M  V30 21 C 0.418450 -2.994340 -0.412410 0
M  V30 22 H -5.526800 1.499770 0.122190 0
M  V30 23 H -6.296470 -0.855600 -0.234400 0
M  V30 24 H -4.562480 -2.650700 -0.502300 0
M  V30 25 H -2.281600 -3.314480 -0.375010 0
M  V30 26 H -1.642770 -2.239560 -1.657340 0
M  V30 27 H 5.315710 -1.116790 -1.510080 0
M  V30 28 H 6.098320 -0.457870 0.774360 0
M  V30 29 H 4.392620 0.326070 2.443750 0
M  V30 30 H 2.057220 0.566950 3.038450 0
M  V30 31 H 1.622440 1.719460 1.748190 0
M  V30 32 H -1.707510 -1.742590 1.854570 0
M  V30 33 H -0.713090 -3.200310 1.934400 0
M  V30 34 H 0.266750 -1.418120 3.353290 0
M  V30 35 H 1.345950 -1.795980 2.008520 0
M  V30 36 H -0.413290 0.930080 3.583390 0
M  V30 37 H -0.612900 1.863540 2.061200 0
M  V30 38 H -1.608140 0.430830 2.348830 0
M  V30 39 H 0.532340 -2.795540 -1.479110 0
M  V30 40 H 0.146060 -4.051770 -0.252700 0
M  V30 41 H 1.375930 -2.794280 0.070470 0
M  V30 42 C -2.964730 2.374450 0.330660 0
M  V30 43 H -1.992600 2.558020 -0.133470 0
M  V30 44 H -3.689770 3.107950 -0.036200 0
M  V30 45 H -2.851470 2.538790 1.410450 0
M  V30 46 C 2.763780 -1.134150 -2.435530 0
M  V30 47 H 3.328710 -0.602750 -3.210890 0
M  V30 48 H 2.940010 -2.207630 -2.588970 0
M  V30 49 H 1.694930 -0.926010 -2.556810 0
M  V30 50 O -0.301900 -0.489800 -2.288980 0
M  V30 51 H -0.325860 0.277730 -2.881840 0
M  V30 52 Br 0.570890 2.644550 -0.666980 0
M  V30 END ATOM
M  V30 BEGIN BOND
M  V30 1 1 47 46
M  V30 2 1 51 50
M  V30 3 1 48 46
M  V30 4 1 49 46
M  V30 5 1 46 11
M  V30 6 1 50 1
M  V30 7 1 26 17
M  V30 8 1 27 13
M  V30 9 1 39 21
M  V30 10 1 11 13
M  V30 11 2 11 3
M  V30 12 2 13 15
M  V30 13 1 52 1
M  V30 14 1 17 25
M  V30 15 1 17 7
M  V30 16 1 17 4
M  V30 17 1 24 9
M  V30 18 1 21 40
M  V30 19 1 21 41
M  V30 20 1 21 4
M  V30 21 1 9 7
M  V30 22 2 9 10
M  V30 23 2 7 2
M  V30 24 1 23 10
M  V30 25 1 10 8
M  V30 26 1 3 12
M  V30 27 1 43 42
M  V30 28 1 2 6
M  V30 29 1 44 42
M  V30 30 2 8 6
M  V30 31 1 8 22
M  V30 32 1 6 42
M  V30 33 1 4 19
M  V30 34 1 42 45
M  V30 35 1 15 28
M  V30 36 1 15 14
M  V30 37 2 12 14
M  V30 38 1 12 16
M  V30 39 1 14 29
M  V30 40 1 19 32
M  V30 41 1 19 33
M  V30 42 1 19 18
M  V30 43 1 31 16
M  V30 44 1 5 16
M  V30 45 1 5 18
M  V30 46 1 5 20
M  V30 47 1 16 30
M  V30 48 1 35 18
M  V30 49 1 37 20
M  V30 50 1 18 34
M  V30 51 1 38 20
M  V30 52 1 20 36
M  V30 53 9 2 1
M  V30 54 9 3 1
M  V30 55 9 4 1
M  V30 56 9 5 1
M  V30 END BOND
M  V30 END CTAB
M  END
