
     RDKit          3D

  0  0  0  0  0  0  0  0  0  0999 V3000
M  V30 BEGIN CTAB
M  V30 COUNTS 48 52 0 0 0
M  V30 BEGIN ATOM
M  V30 1 Fe -0.429340 -0.182110 0.016050 0 VAL=6
M  V30 2 N -0.132500 -0.140300 2.247200 0
M  V30 3 N -0.128000 0.091200 -2.164900 0
M  V30 4 N 1.544200 -1.430800 0.444700 0
M  V30 5 N 1.460800 1.395800 -0.335500 0
M  V30 6 C -0.697000 0.735700 3.088500 0
M  V30 7 C 0.650800 -1.121100 2.728700 0
M  V30 8 C -0.496700 0.675500 4.467200 0
M  V30 9 C 0.910200 -1.242300 4.094900 0
M  V30 10 C 0.325100 -0.331200 4.975700 0
M  V30 11 C -0.697800 -0.770300 -3.021900 0
M  V30 12 C 0.586700 1.124200 -2.637500 0
M  V30 13 C -0.579100 -0.631300 -4.402200 0
M  V30 14 C 0.763600 1.325300 -4.007400 0
M  V30 15 C 0.166200 0.438500 -4.902200 0
M  V30 16 C 1.144000 2.077600 -1.600600 0
M  V30 17 C 1.178200 -2.101200 1.701300 0
M  V30 18 C 2.680800 0.580100 -0.451700 0
M  V30 19 C 2.712100 -0.548700 0.582600 0
M  V30 20 C 1.525800 2.358300 0.769900 0
M  V30 21 C 1.689100 -2.407400 -0.642900 0
M  V30 22 H -0.970800 1.401600 5.119900 0
M  V30 23 H 0.511900 -0.405500 6.043600 0
M  V30 24 H 1.557800 -2.035700 4.456500 0
M  V30 25 H 2.012000 -2.689900 2.120600 0
M  V30 26 H 0.354300 -2.777800 1.447600 0
M  V30 27 H -1.056900 -1.345400 -5.065300 0
M  V30 28 H 0.283700 0.578600 -5.973200 0
M  V30 29 H 1.352800 2.166700 -4.360100 0
M  V30 30 H 2.021800 2.609800 -2.005800 0
M  V30 31 H 0.375400 2.831000 -1.401400 0
M  V30 32 H 2.699100 -0.120800 1.589100 0
M  V30 33 H 3.656900 -1.110800 0.486600 0
M  V30 34 H 3.589600 1.199100 -0.352500 0
M  V30 35 H 2.697400 0.148500 -1.456600 0
M  V30 36 H 2.280000 3.144400 0.593800 0
M  V30 37 H 0.537100 2.805700 0.893000 0
M  V30 38 H 1.770500 1.838300 1.698300 0
M  V30 39 H 0.728200 -2.909000 -0.771300 0
M  V30 40 H 2.488100 -3.140300 -0.435700 0
M  V30 41 H 1.921100 -1.884900 -1.573600 0
M  V30 42 H -1.317100 1.486900 2.606000 0
M  V30 43 H -1.243300 -1.575800 -2.537100 0
M  V30 44 O -1.271200 -1.891600 -0.175800 0
M  V30 45 H -2.219000 -1.869600 0.024400 0
M  V30 46 N -1.655700 1.505900 0.221300 0
M  V30 47 N -1.929500 2.260000 -0.680300 0 CHG=1 VAL=4
M  V30 48 N -2.180600 3.010600 -1.533600 0 CHG=-1 VAL=2
M  V30 END ATOM
M  V30 BEGIN BOND
M  V30 1 1 28 15
M  V30 2 1 27 13
M  V30 3 2 15 13
M  V30 4 1 15 14
M  V30 5 1 13 11
M  V30 6 1 29 14
M  V30 7 2 14 12
M  V30 8 1 11 43
M  V30 9 2 11 3
M  V30 10 1 12 3
M  V30 11 1 12 16
M  V30 12 1 30 16
M  V30 13 1 16 31
M  V30 14 1 16 5
M  V30 15 1 41 21
M  V30 16 2 48 47
M  V30 17 1 35 18
M  V30 18 1 39 21
M  V30 19 2 47 46
M  V30 20 1 21 40
M  V30 21 1 21 4
M  V30 22 1 18 34
M  V30 23 1 18 5
M  V30 24 1 18 19
M  V30 25 1 5 20
M  V30 26 1 44 45
M  V30 27 1 4 19
M  V30 28 1 4 17
M  V30 29 1 33 19
M  V30 30 1 19 32
M  V30 31 1 36 20
M  V30 32 1 20 37
M  V30 33 1 20 38
M  V30 34 1 26 17
M  V30 35 1 17 25
M  V30 36 1 17 7
M  V30 37 2 2 7
M  V30 38 1 2 6
M  V30 39 1 42 6
M  V30 40 1 7 9
M  V30 41 2 6 8
M  V30 42 1 9 24
M  V30 43 2 9 10
M  V30 44 1 8 10
M  V30 45 1 8 22
M  V30 46 1 10 23
M  V30 47 1 1 44
M  V30 48 1 1 46
M  V30 49 9 2 1
M  V30 50 9 3 1
M  V30 51 9 4 1
M  V30 52 9 5 1
M  V30 END BOND
M  V30 END CTAB
M  END
