
     RDKit          3D

  0  0  0  0  0  0  0  0  0  0999 V3000
M  V30 BEGIN CTAB
M  V30 COUNTS 48 52 0 0 0
M  V30 BEGIN ATOM
M  V30 1 Fe -0.030960 -0.239460 -0.806410 0 VAL=6
M  V30 2 N -2.227140 0.107470 -0.454550 0
M  V30 3 N 2.140850 -0.510840 -0.432800 0
M  V30 4 N -0.783080 -2.101750 0.418740 0
M  V30 5 N 0.449910 0.310260 1.573780 0
M  V30 6 C -2.864450 1.283290 -0.531960 0
M  V30 7 C -2.920420 -1.007850 -0.162860 0
M  V30 8 C -4.236270 1.403000 -0.313870 0
M  V30 9 C -4.294420 -0.970800 0.078380 0
M  V30 10 C -4.961220 0.252920 -0.000930 0
M  V30 11 C 2.885700 -1.188360 -1.319570 0
M  V30 12 C 2.726610 0.061680 0.630750 0
M  V30 13 C 4.264990 -1.322220 -1.181540 0
M  V30 14 C 4.102720 -0.037490 0.846490 0
M  V30 15 C 4.882870 -0.733710 -0.076250 0
M  V30 16 C 1.819750 0.850940 1.552230 0
M  V30 17 C -2.121480 -2.294680 -0.161390 0
M  V30 18 C 0.393210 -0.979230 2.286190 0
M  V30 19 C -0.819020 -1.811110 1.861320 0
M  V30 20 C -0.479920 1.293970 2.147730 0
M  V30 21 C 0.095510 -3.233000 0.089030 0
M  V30 22 H -4.715760 2.373880 -0.383950 0
M  V30 23 H -6.030590 0.306570 0.183700 0
M  V30 24 H -4.826910 -1.884790 0.324380 0
M  V30 25 H -2.683920 -3.097860 0.343850 0
M  V30 26 H -1.956160 -2.578980 -1.206650 0
M  V30 27 H 4.836380 -1.874820 -1.920540 0
M  V30 28 H 5.956370 -0.818820 0.068100 0
M  V30 29 H 4.548930 0.427900 1.720540 0
M  V30 30 H 2.254560 0.892430 2.565650 0
M  V30 31 H 1.766120 1.880580 1.182330 0
M  V30 32 H -1.736180 -1.255950 2.076570 0
M  V30 33 H -0.859280 -2.738780 2.456370 0
M  V30 34 H 0.375710 -0.829490 3.379500 0
M  V30 35 H 1.307410 -1.532290 2.053890 0
M  V30 36 H -0.236560 1.520200 3.199780 0
M  V30 37 H -0.435880 2.217100 1.567330 0
M  V30 38 H -1.500610 0.909780 2.097880 0
M  V30 39 H 0.183640 -3.283750 -0.997600 0
M  V30 40 H -0.289130 -4.184220 0.494880 0
M  V30 41 H 1.091500 -3.050090 0.498240 0
M  V30 42 H -2.234430 2.133320 -0.774690 0
M  V30 43 H 2.314370 -1.613910 -2.140450 0
M  V30 44 O -0.066740 -1.394570 -2.323320 0
M  V30 45 H -0.152300 -0.921640 -3.164650 0
M  V30 46 N 0.251850 1.805340 -1.200090 0
M  V30 47 C 0.461970 2.905340 -0.806950 0
M  V30 48 S 0.744870 4.392280 -0.189220 0
M  V30 END ATOM
M  V30 BEGIN BOND
M  V30 1 1 45 44
M  V30 2 1 44 1
M  V30 3 1 43 11
M  V30 4 1 27 13
M  V30 5 1 11 13
M  V30 6 2 11 3
M  V30 7 1 26 17
M  V30 8 2 46 47
M  V30 9 1 46 1
M  V30 10 2 13 15
M  V30 11 1 39 21
M  V30 12 2 47 48
M  V30 13 1 42 6
M  V30 14 2 6 2
M  V30 15 1 6 8
M  V30 16 1 2 7
M  V30 17 1 3 12
M  V30 18 1 22 8
M  V30 19 2 8 10
M  V30 20 1 7 17
M  V30 21 2 7 9
M  V30 22 1 17 25
M  V30 23 1 17 4
M  V30 24 1 15 28
M  V30 25 1 15 14
M  V30 26 1 10 9
M  V30 27 1 10 23
M  V30 28 1 9 24
M  V30 29 1 21 4
M  V30 30 1 21 40
M  V30 31 1 21 41
M  V30 32 1 4 19
M  V30 33 2 12 14
M  V30 34 1 12 16
M  V30 35 1 14 29
M  V30 36 1 31 16
M  V30 37 1 16 5
M  V30 38 1 16 30
M  V30 39 1 37 20
M  V30 40 1 5 20
M  V30 41 1 5 18
M  V30 42 1 19 32
M  V30 43 1 19 18
M  V30 44 1 19 33
M  V30 45 1 35 18
M  V30 46 1 38 20
M  V30 47 1 20 36
M  V30 48 1 18 34
M  V30 49 9 2 1
M  V30 50 9 3 1
M  V30 51 9 4 1
M  V30 52 9 5 1
M  V30 END BOND
M  V30 END CTAB
M  END
