
     RDKit          3D

  0  0  0  0  0  0  0  0  0  0999 V3000
M  V30 BEGIN CTAB
M  V30 COUNTS 46 50 0 0 0
M  V30 BEGIN ATOM
M  V30 1 Fe -0.065150 -0.012530 -0.915460 0 VAL=6
M  V30 2 N 2.366870 0.082950 -0.563790 0
M  V30 3 N -2.343000 -0.089810 -0.401100 0
M  V30 4 N 0.410400 1.469720 1.024830 0
M  V30 5 N -0.359590 -1.287470 1.205990 0
M  V30 6 C 3.275910 -0.811140 -0.887570 0
M  V30 7 C 2.730850 1.087170 0.264300 0
M  V30 8 C 4.597460 -0.817820 -0.441190 0
M  V30 9 C 4.024780 1.179590 0.774930 0
M  V30 10 C 4.969940 0.213260 0.413680 0
M  V30 11 C -3.284580 0.715430 -0.855160 0
M  V30 12 C -2.702810 -1.089010 0.433700 0
M  V30 13 C -4.640220 0.615450 -0.542570 0
M  V30 14 C -4.029070 -1.273170 0.820730 0
M  V30 15 C -5.009760 -0.412120 0.318140 0
M  V30 16 C -1.593630 -2.013060 0.884210 0
M  V30 17 C 1.657640 2.104840 0.577840 0
M  V30 18 C -0.481360 -0.403080 2.368360 0
M  V30 19 C 0.535350 0.744170 2.293030 0
M  V30 20 C 0.768200 -2.220020 1.298140 0
M  V30 21 C -0.685440 2.446520 1.025390 0
M  V30 22 H 5.277920 -1.598070 -0.760970 0
M  V30 23 H 5.984150 0.263240 0.799120 0
M  V30 24 H 4.284520 1.992300 1.445320 0
M  V30 25 H 2.037740 2.841150 1.307100 0
M  V30 26 H 1.406170 2.609710 -0.359980 0
M  V30 27 H -5.347950 1.319800 -0.963300 0
M  V30 28 H -6.050620 -0.537900 0.602080 0
M  V30 29 H -4.286520 -2.077230 1.502360 0
M  V30 30 H -1.943550 -2.639080 1.723950 0
M  V30 31 H -1.344590 -2.653530 0.030240 0
M  V30 32 H 1.547840 0.334540 2.355890 0
M  V30 33 H 0.408700 1.410350 3.164350 0
M  V30 34 H -0.354660 -0.949300 3.320000 0
M  V30 35 H -1.493730 0.011980 2.374810 0
M  V30 36 H 0.605150 -2.997100 2.066010 0
M  V30 37 H 0.894510 -2.665930 0.308690 0
M  V30 38 H 1.680380 -1.672790 1.548170 0
M  V30 39 H -0.834460 2.769410 -0.006170 0
M  V30 40 H -0.473360 3.308010 1.683170 0
M  V30 41 H -1.603770 1.964820 1.369370 0
M  V30 42 F -2.884530 1.696670 -1.662990 0
M  V30 43 F 2.884090 -1.790450 -1.714910 0
M  V30 44 O -0.107880 -1.797570 -1.608510 0
M  V30 45 H 0.620730 -1.984920 -2.215290 0
M  V30 46 F 0.024890 1.652360 -1.728990 0
M  V30 END ATOM
M  V30 BEGIN BOND
M  V30 1 1 45 44
M  V30 2 1 46 1
M  V30 3 1 43 6
M  V30 4 1 42 11
M  V30 5 1 44 1
M  V30 6 1 27 13
M  V30 7 2 6 2
M  V30 8 1 6 8
M  V30 9 1 11 13
M  V30 10 2 11 3
M  V30 11 1 22 8
M  V30 12 1 2 7
M  V30 13 2 13 15
M  V30 14 2 8 10
M  V30 15 1 3 12
M  V30 16 1 26 17
M  V30 17 1 39 21
M  V30 18 1 31 16
M  V30 19 1 7 17
M  V30 20 2 7 9
M  V30 21 1 37 20
M  V30 22 1 15 28
M  V30 23 1 15 14
M  V30 24 1 10 9
M  V30 25 1 10 23
M  V30 26 2 12 14
M  V30 27 1 12 16
M  V30 28 1 17 4
M  V30 29 1 17 25
M  V30 30 1 9 24
M  V30 31 1 14 29
M  V30 32 1 16 5
M  V30 33 1 16 30
M  V30 34 1 4 21
M  V30 35 1 4 19
M  V30 36 1 21 41
M  V30 37 1 21 40
M  V30 38 1 5 20
M  V30 39 1 5 18
M  V30 40 1 20 38
M  V30 41 1 20 36
M  V30 42 1 19 32
M  V30 43 1 19 18
M  V30 44 1 19 33
M  V30 45 1 18 35
M  V30 46 1 18 34
M  V30 47 9 2 1
M  V30 48 9 3 1
M  V30 49 9 4 1
M  V30 50 9 5 1
M  V30 END BOND
M  V30 END CTAB
M  END
