
     RDKit          3D

  0  0  0  0  0  0  0  0  0  0999 V3000
M  V30 BEGIN CTAB
M  V30 COUNTS 48 52 0 0 0
M  V30 BEGIN ATOM
M  V30 1 Fe -0.008470 -0.022840 -0.545510 0 VAL=6
M  V30 2 N 2.047590 -0.038680 -0.424730 0
M  V30 3 N -2.090020 -0.073810 -0.431750 0
M  V30 4 N 0.404340 1.673350 1.035410 0
M  V30 5 N -0.263120 -1.109130 1.355110 0
M  V30 6 C 2.842910 -1.037660 -0.882370 0
M  V30 7 C 2.614960 1.064570 0.118470 0
M  V30 8 C 4.254060 -0.946760 -0.765140 0
M  V30 9 C 3.984190 1.201430 0.281880 0
M  V30 10 C 4.816120 0.167580 -0.179400 0
M  V30 11 C -3.021590 0.677130 -1.042730 0
M  V30 12 C -2.539570 -1.020870 0.437770 0
M  V30 13 C -4.399490 0.528090 -0.832650 0
M  V30 14 C -3.886630 -1.219950 0.716450 0
M  V30 15 C -4.838270 -0.437170 0.061260 0
M  V30 16 C -1.481210 -1.887720 1.065100 0
M  V30 17 C 1.663110 2.182880 0.482180 0
M  V30 18 C -0.466300 -0.133390 2.448870 0
M  V30 19 C 0.529670 1.026860 2.343030 0
M  V30 20 C 0.853430 -2.029010 1.639860 0
M  V30 21 C -0.665610 2.664630 0.957440 0
M  V30 22 H 4.847680 -1.771560 -1.142570 0
M  V30 23 H 5.895460 0.245740 -0.075580 0
M  V30 24 H 4.392560 2.096620 0.739300 0
M  V30 25 H 2.155170 2.905620 1.155310 0
M  V30 26 H 1.397880 2.683690 -0.453710 0
M  V30 27 H -5.099730 1.167320 -1.363430 0
M  V30 28 H -5.899090 -0.572460 0.248940 0
M  V30 29 H -4.179670 -1.982080 1.430420 0
M  V30 30 H -1.871770 -2.393260 1.962550 0
M  V30 31 H -1.186380 -2.630230 0.318770 0
M  V30 32 H 1.550610 0.646630 2.439280 0
M  V30 33 H 0.368700 1.731710 3.176370 0
M  V30 34 H -0.387380 -0.623540 3.432370 0
M  V30 35 H -1.484460 0.257110 2.361900 0
M  V30 36 H 0.622690 -2.683970 2.495140 0
M  V30 37 H 1.036450 -2.622790 0.745300 0
M  V30 38 H 1.754930 -1.456480 1.859260 0
M  V30 39 H -0.820950 2.903550 -0.097330 0
M  V30 40 H -0.435650 3.581310 1.529100 0
M  V30 41 H -1.594440 2.236600 1.345720 0
M  V30 42 O 2.325770 -2.113000 -1.417770 0
M  V30 43 H 1.238130 -2.086020 -1.450010 0
M  V30 44 O -2.548590 1.623970 -1.887670 0
M  V30 45 H -3.291900 2.074130 -2.318030 0
M  V30 46 O 0.217660 1.200240 -1.905140 0
M  V30 47 H -0.613740 1.329420 -2.379600 0
M  V30 48 F -0.042630 -2.010970 -1.325550 0
M  V30 END ATOM
M  V30 BEGIN BOND
M  V30 1 1 47 46
M  V30 2 1 45 44
M  V30 3 1 46 1
M  V30 4 1 44 11
M  V30 5 1 43 42
M  V30 6 1 42 6
M  V30 7 1 27 13
M  V30 8 1 48 1
M  V30 9 1 22 8
M  V30 10 1 11 13
M  V30 11 2 11 3
M  V30 12 1 6 8
M  V30 13 2 6 2
M  V30 14 2 13 15
M  V30 15 2 8 10
M  V30 16 1 26 17
M  V30 17 1 3 12
M  V30 18 1 2 7
M  V30 19 1 10 23
M  V30 20 1 10 9
M  V30 21 1 39 21
M  V30 22 1 15 28
M  V30 23 1 15 14
M  V30 24 2 7 9
M  V30 25 1 7 17
M  V30 26 1 9 24
M  V30 27 1 31 16
M  V30 28 2 12 14
M  V30 29 1 12 16
M  V30 30 1 17 4
M  V30 31 1 17 25
M  V30 32 1 14 29
M  V30 33 1 37 20
M  V30 34 1 21 4
M  V30 35 1 21 41
M  V30 36 1 21 40
M  V30 37 1 4 19
M  V30 38 1 16 5
M  V30 39 1 16 30
M  V30 40 1 5 20
M  V30 41 1 5 18
M  V30 42 1 20 38
M  V30 43 1 20 36
M  V30 44 1 19 32
M  V30 45 1 19 18
M  V30 46 1 19 33
M  V30 47 1 35 18
M  V30 48 1 18 34
M  V30 49 9 2 1
M  V30 50 9 3 1
M  V30 51 9 4 1
M  V30 52 9 5 1
M  V30 END BOND
M  V30 END CTAB
M  END
