
     RDKit          3D

  0  0  0  0  0  0  0  0  0  0999 V3000
M  V30 BEGIN CTAB
M  V30 COUNTS 46 50 0 0 0
M  V30 BEGIN ATOM
M  V30 1 Fe -0.016510 -0.201760 -0.748750 0 VAL=6
M  V30 2 N 2.216250 -0.295430 -0.376860 0
M  V30 3 N -2.202980 -0.015660 -0.445230 0
M  V30 4 N 0.560870 1.837410 0.313240 0
M  V30 5 N -0.485150 -0.552010 1.637220 0
M  V30 6 C 2.971670 -1.402270 -0.374000 0
M  V30 7 C 2.794640 0.904810 -0.191340 0
M  V30 8 C 4.351360 -1.361020 -0.173980 0
M  V30 9 C 4.167510 1.029020 0.027530 0
M  V30 10 C 4.956990 -0.121910 0.034170 0
M  V30 11 C -2.973830 0.560540 -1.378020 0
M  V30 12 C -2.760750 -0.507410 0.672140 0
M  V30 13 C -4.355170 0.671500 -1.231970 0
M  V30 14 C -4.134880 -0.422240 0.900690 0
M  V30 15 C -4.943870 0.171550 -0.069020 0
M  V30 16 C -1.809290 -1.196910 1.625420 0
M  V30 17 C 1.874220 2.102900 -0.291720 0
M  V30 18 C -0.521260 0.776930 2.271080 0
M  V30 19 C 0.619850 1.668810 1.772640 0
M  V30 20 C 0.509950 -1.439680 2.253270 0
M  V30 21 C -0.417780 2.848320 -0.107050 0
M  V30 22 H 4.929430 -2.279550 -0.179340 0
M  V30 23 H 6.028240 -0.050200 0.202000 0
M  V30 24 H 4.604580 2.010260 0.188050 0
M  V30 25 H 2.357900 2.998080 0.135320 0
M  V30 26 H 1.681380 2.273900 -1.356810 0
M  V30 27 H -4.950030 1.141580 -2.008700 0
M  V30 28 H -6.017110 0.245760 0.083750 0
M  V30 29 H -4.558040 -0.817400 1.819750 0
M  V30 30 H -2.246740 -1.255110 2.636740 0
M  V30 31 H -1.657280 -2.215330 1.251450 0
M  V30 32 H 1.578650 1.206690 2.023920 0
M  V30 33 H 0.585770 2.640650 2.293900 0
M  V30 34 H -0.478570 0.698470 3.370980 0
M  V30 35 H -1.478530 1.242970 2.021580 0
M  V30 36 H 0.248910 -1.688130 3.296360 0
M  V30 37 H 0.574070 -2.349900 1.653260 0
M  V30 38 H 1.490490 -0.959390 2.240910 0
M  V30 39 H -0.507990 2.795060 -1.193540 0
M  V30 40 H -0.123600 3.863760 0.210320 0
M  V30 41 H -1.393660 2.612260 0.322620 0
M  V30 42 H 2.422630 -2.324990 -0.542280 0
M  V30 43 H -2.421150 0.928470 -2.238540 0
M  V30 44 O -0.030810 0.827560 -2.357780 0
M  V30 45 H 0.106050 0.279250 -3.145050 0
M  V30 46 Cl -0.158740 -2.640570 -1.005570 0
M  V30 END ATOM
M  V30 BEGIN BOND
M  V30 1 1 45 44
M  V30 2 1 44 1
M  V30 3 1 43 11
M  V30 4 1 27 13
M  V30 5 1 11 13
M  V30 6 2 11 3
M  V30 7 1 26 17
M  V30 8 2 13 15
M  V30 9 1 39 21
M  V30 10 1 46 1
M  V30 11 1 42 6
M  V30 12 1 3 12
M  V30 13 2 2 6
M  V30 14 1 2 7
M  V30 15 1 6 8
M  V30 16 1 17 7
M  V30 17 1 17 25
M  V30 18 1 17 4
M  V30 19 2 7 9
M  V30 20 1 22 8
M  V30 21 2 8 10
M  V30 22 1 21 40
M  V30 23 1 21 4
M  V30 24 1 21 41
M  V30 25 1 15 28
M  V30 26 1 15 14
M  V30 27 1 9 10
M  V30 28 1 9 24
M  V30 29 1 10 23
M  V30 30 1 4 19
M  V30 31 2 12 14
M  V30 32 1 12 16
M  V30 33 1 14 29
M  V30 34 1 31 16
M  V30 35 1 16 5
M  V30 36 1 16 30
M  V30 37 1 5 20
M  V30 38 1 5 18
M  V30 39 1 37 20
M  V30 40 1 19 32
M  V30 41 1 19 18
M  V30 42 1 19 33
M  V30 43 1 35 18
M  V30 44 1 38 20
M  V30 45 1 20 36
M  V30 46 1 18 34
M  V30 47 9 2 1
M  V30 48 9 3 1
M  V30 49 9 4 1
M  V30 50 9 5 1
M  V30 END BOND
M  V30 END CTAB
M  END
