
     RDKit          3D

  0  0  0  0  0  0  0  0  0  0999 V3000
M  V30 BEGIN CTAB
M  V30 COUNTS 48 52 0 0 0
M  V30 BEGIN ATOM
M  V30 1 Fe -0.077680 -0.264490 -0.687800 0 VAL=6
M  V30 2 N 2.206380 -0.598180 -0.186330 0
M  V30 3 N -2.365370 0.080730 -0.262090 0
M  V30 4 N 0.363660 0.351220 1.637550 0
M  V30 5 N -0.836880 -2.088790 0.555500 0
M  V30 6 C 3.057950 -1.238420 -0.969330 0
M  V30 7 C 2.707710 0.145090 0.820350 0
M  V30 8 C 4.443830 -1.197070 -0.846300 0
M  V30 9 C 4.080340 0.244910 1.046330 0
M  V30 10 C 4.957470 -0.426750 0.192990 0
M  V30 11 C -3.082820 1.184590 -0.370330 0
M  V30 12 C -3.014510 -1.090680 -0.094670 0
M  V30 13 C -4.475380 1.236240 -0.339280 0
M  V30 14 C -4.405370 -1.152150 -0.029210 0
M  V30 15 C -5.142170 0.028130 -0.165140 0
M  V30 16 C -2.157030 -2.336850 -0.041540 0
M  V30 17 C 1.722180 0.913480 1.672600 0
M  V30 18 C -0.904350 -1.764790 1.989550 0
M  V30 19 C 0.284980 -0.900280 2.416070 0
M  V30 20 C 0.076130 -3.204990 0.263240 0
M  V30 21 C -0.595860 1.361830 2.115330 0
M  V30 22 H 5.067590 -1.748470 -1.539540 0
M  V30 23 H 6.031080 -0.355160 0.339700 0
M  V30 24 H 4.450400 0.848870 1.868400 0
M  V30 25 H 2.100690 0.975200 2.707340 0
M  V30 26 H 1.676910 1.939430 1.291760 0
M  V30 27 H -4.985670 2.186490 -0.441120 0
M  V30 28 H -6.227330 0.006040 -0.126060 0
M  V30 29 H -4.899780 -2.106620 0.119480 0
M  V30 30 H -2.699680 -3.146910 0.474400 0
M  V30 31 H -1.967130 -2.634350 -1.078500 0
M  V30 32 H 1.211660 -1.455750 2.248510 0
M  V30 33 H 0.223820 -0.692040 3.497770 0
M  V30 34 H -0.937690 -2.677400 2.607680 0
M  V30 35 H -1.835360 -1.222200 2.174370 0
M  V30 36 H -0.307260 -4.161520 0.657020 0
M  V30 37 H 0.208110 -3.253610 -0.819150 0
M  V30 38 H 1.050520 -3.002410 0.712310 0
M  V30 39 H -0.604280 2.203590 1.421040 0
M  V30 40 H -0.337160 1.719070 3.125570 0
M  V30 41 H -1.598160 0.932510 2.142060 0
M  V30 42 F -2.401930 2.321680 -0.497110 0
M  V30 43 F 2.522050 -1.981650 -1.939810 0
M  V30 44 O -0.394270 -1.383210 -2.168440 0
M  V30 45 H -0.147360 -0.993180 -3.019400 0
M  V30 46 N 0.451380 1.676040 -1.179250 0
M  V30 47 C 0.779820 2.773800 -0.874630 0
M  V30 48 S 1.242950 4.257290 -0.367170 0
M  V30 END ATOM
M  V30 BEGIN BOND
M  V30 1 1 45 44
M  V30 2 1 44 1
M  V30 3 1 43 6
M  V30 4 1 22 8
M  V30 5 2 46 47
M  V30 6 1 46 1
M  V30 7 1 31 16
M  V30 8 1 6 8
M  V30 9 2 6 2
M  V30 10 2 47 48
M  V30 11 2 8 10
M  V30 12 1 37 20
M  V30 13 1 42 11
M  V30 14 1 27 13
M  V30 15 1 11 13
M  V30 16 2 11 3
M  V30 17 2 13 15
M  V30 18 1 3 12
M  V30 19 1 2 7
M  V30 20 1 15 28
M  V30 21 1 15 14
M  V30 22 1 12 16
M  V30 23 2 12 14
M  V30 24 1 16 30
M  V30 25 1 16 5
M  V30 26 1 14 29
M  V30 27 1 10 23
M  V30 28 1 10 9
M  V30 29 1 20 5
M  V30 30 1 20 36
M  V30 31 1 20 38
M  V30 32 1 5 18
M  V30 33 2 7 9
M  V30 34 1 7 17
M  V30 35 1 9 24
M  V30 36 1 26 17
M  V30 37 1 39 21
M  V30 38 1 4 17
M  V30 39 1 4 21
M  V30 40 1 4 19
M  V30 41 1 17 25
M  V30 42 1 18 35
M  V30 43 1 18 19
M  V30 44 1 18 34
M  V30 45 1 21 41
M  V30 46 1 21 40
M  V30 47 1 32 19
M  V30 48 1 19 33
M  V30 49 9 2 1
M  V30 50 9 3 1
M  V30 51 9 4 1
M  V30 52 9 5 1
M  V30 END BOND
M  V30 END CTAB
M  END
