
     RDKit          3D

  0  0  0  0  0  0  0  0  0  0999 V3000
M  V30 BEGIN CTAB
M  V30 COUNTS 50 54 0 0 0
M  V30 BEGIN ATOM
M  V30 1 Fe -0.002490 0.397640 0.282380 0 VAL=6
M  V30 2 N 2.298700 0.005200 -0.122000 0
M  V30 3 N -2.377000 -0.124500 0.283300 0
M  V30 4 N 0.595200 -1.592500 1.404000 0
M  V30 5 N -0.486500 -1.405800 -1.305000 0
M  V30 6 C 3.076500 0.541200 -1.063800 0
M  V30 7 C 2.860700 -0.739400 0.847000 0
M  V30 8 C 4.470900 0.371700 -1.086600 0
M  V30 9 C 4.233300 -0.980200 0.893800 0
M  V30 10 C 5.044700 -0.403300 -0.086800 0
M  V30 11 C -3.266400 0.334200 1.164300 0
M  V30 12 C -2.823300 -0.620700 -0.883300 0
M  V30 13 C -4.650300 0.331700 0.927900 0
M  V30 14 C -4.180700 -0.687700 -1.197700 0
M  V30 15 C -5.103200 -0.189500 -0.277300 0
M  V30 16 C -1.790500 -1.075600 -1.895200 0
M  V30 17 C 1.928700 -1.258000 1.922200 0
M  V30 18 C -0.550100 -2.650300 -0.515700 0
M  V30 19 C 0.601100 -2.742800 0.489600 0
M  V30 20 C 0.525400 -1.491300 -2.372600 0
M  V30 21 C -0.362900 -1.744000 2.508100 0
M  V30 22 H 5.071900 0.829800 -1.866800 0
M  V30 23 H 6.119200 -0.564100 -0.075500 0
M  V30 24 H 4.653600 -1.597900 1.680500 0
M  V30 25 H 2.394700 -2.110000 2.446900 0
M  V30 26 H 1.777200 -0.437900 2.632200 0
M  V30 27 H -5.340300 0.723000 1.670500 0
M  V30 28 H -6.167400 -0.212700 -0.494600 0
M  V30 29 H -4.501400 -1.107300 -2.145800 0
M  V30 30 H -2.195200 -1.930700 -2.465700 0
M  V30 31 H -1.634900 -0.263500 -2.612400 0
M  V30 32 H 1.554600 -2.751800 -0.045300 0
M  V30 33 H 0.534400 -3.697400 1.038900 0
M  V30 34 H -0.542400 -3.537100 -1.173300 0
M  V30 35 H -1.500100 -2.657700 0.024400 0
M  V30 36 H 0.265000 -2.270100 -3.110300 0
M  V30 37 H 0.607500 -0.526800 -2.876000 0
M  V30 38 H 1.496600 -1.730400 -1.938400 0
M  V30 39 H -0.434200 -0.781100 3.016500 0
M  V30 40 H -0.060400 -2.544100 3.206500 0
M  V30 41 H -1.348600 -1.979500 2.101900 0
M  V30 42 O 2.397900 1.237000 -1.993000 0
M  V30 43 H 2.986000 1.598800 -2.672900 0
M  V30 44 O -2.731400 0.796200 2.318300 0
M  V30 45 H -3.439600 1.144800 2.881800 0
M  V30 46 O 0.341600 1.186200 1.965200 0
M  V30 47 H -0.021700 2.080400 2.036700 0
M  V30 48 N -0.582800 1.758800 -1.176000 0
M  V30 49 N -0.345800 1.816200 -2.348900 0 CHG=1 VAL=4
M  V30 50 N -0.149400 1.857900 -3.500700 0 CHG=-1 VAL=2
M  V30 END ATOM
M  V30 BEGIN BOND
M  V30 1 2 50 49
M  V30 2 1 36 20
M  V30 3 1 37 20
M  V30 4 1 43 42
M  V30 5 1 31 16
M  V30 6 1 30 16
M  V30 7 1 20 38
M  V30 8 1 20 5
M  V30 9 2 49 48
M  V30 10 1 29 14
M  V30 11 1 42 6
M  V30 12 1 16 5
M  V30 13 1 16 12
M  V30 14 1 22 8
M  V30 15 1 5 18
M  V30 16 1 14 12
M  V30 17 2 14 15
M  V30 18 1 34 18
M  V30 19 1 8 6
M  V30 20 2 8 10
M  V30 21 2 6 2
M  V30 22 2 12 3
M  V30 23 1 18 35
M  V30 24 1 18 19
M  V30 25 1 28 15
M  V30 26 1 15 13
M  V30 27 1 2 7
M  V30 28 1 10 23
M  V30 29 1 10 9
M  V30 30 1 32 19
M  V30 31 1 3 11
M  V30 32 1 19 33
M  V30 33 1 19 4
M  V30 34 2 7 9
M  V30 35 1 7 17
M  V30 36 1 9 24
M  V30 37 2 13 11
M  V30 38 1 13 27
M  V30 39 1 11 44
M  V30 40 1 4 17
M  V30 41 1 4 21
M  V30 42 1 17 25
M  V30 43 1 17 26
M  V30 44 1 46 47
M  V30 45 1 41 21
M  V30 46 1 44 45
M  V30 47 1 21 39
M  V30 48 1 21 40
M  V30 49 1 1 46
M  V30 50 1 1 48
M  V30 51 9 2 1
M  V30 52 9 3 1
M  V30 53 9 4 1
M  V30 54 9 5 1
M  V30 END BOND
M  V30 END CTAB
M  END
