
     RDKit          3D

  0  0  0  0  0  0  0  0  0  0999 V3000
M  V30 BEGIN CTAB
M  V30 COUNTS 70 73 0 0 0
M  V30 BEGIN ATOM
M  V30 1 Fe -0.171360 -0.109990 -0.223830 0 VAL=5
M  V30 2 N -2.697010 -0.000620 0.410730 0
M  V30 3 N 2.813870 0.568460 -0.569520 0
M  V30 4 N -0.288680 0.692780 1.932240 0
M  V30 5 N 0.271490 2.214060 -0.423900 0
M  V30 6 C -3.849410 0.018280 -0.302790 0
M  V30 7 C -2.740630 0.301430 1.724850 0
M  V30 8 C -5.043130 0.467580 0.288830 0
M  V30 9 C -3.897920 0.739900 2.368840 0
M  V30 10 C -5.067020 0.848530 1.624730 0
M  V30 11 C 4.018690 0.022000 -0.313000 0
M  V30 12 C 2.732460 1.878860 -0.852790 0
M  V30 13 C 5.171390 0.822160 -0.233840 0
M  V30 14 C 3.836900 2.733410 -0.789500 0
M  V30 15 C 5.074720 2.192230 -0.453070 0
M  V30 16 C 1.403460 2.400590 -1.353890 0
M  V30 17 C -1.484500 0.070770 2.534390 0
M  V30 18 C 0.521940 2.794060 0.902270 0
M  V30 19 C -0.412900 2.167100 1.930170 0
M  V30 20 C -0.942950 2.771310 -1.041650 0
M  V30 21 C 0.919760 0.262830 2.664480 0
M  V30 22 H -5.954990 0.510220 -0.290770 0
M  V30 23 H -5.987470 1.202840 2.081010 0
M  V30 24 H -3.873530 0.983900 3.426320 0
M  V30 25 H -1.629300 0.432390 3.564900 0
M  V30 26 H -1.298600 -1.007910 2.563340 0
M  V30 27 H 6.134430 0.379710 -0.012950 0
M  V30 28 H 5.956440 2.824310 -0.385910 0
M  V30 29 H 3.724880 3.790540 -1.011100 0
M  V30 30 H 1.509250 3.467500 -1.614000 0
M  V30 31 H 1.139300 1.833340 -2.251280 0
M  V30 32 H -1.449180 2.415540 1.689070 0
M  V30 33 H -0.207140 2.575210 2.932560 0
M  V30 34 H 0.393710 3.890130 0.900300 0
M  V30 35 H 1.561040 2.593360 1.173270 0
M  V30 36 H -0.880100 3.868940 -1.139520 0
M  V30 37 H -1.063030 2.322650 -2.026200 0
M  V30 38 H -1.822890 2.510310 -0.450780 0
M  V30 39 H 1.811160 0.622310 2.147370 0
M  V30 40 H 0.950010 -0.826810 2.670750 0
M  V30 41 H 0.914570 0.643200 3.698610 0
M  V30 42 C -3.839570 -0.505290 -1.748720 0
M  V30 43 C 4.070890 -1.502260 -0.144730 0
M  V30 44 C -3.110020 0.492570 -2.674870 0
M  V30 45 H -3.517690 1.505820 -2.563920 0
M  V30 46 H -2.035380 0.490420 -2.477180 0
M  V30 47 H -3.254830 0.187320 -3.718910 0
M  V30 48 C -5.272480 -0.703900 -2.287870 0
M  V30 49 H -5.867730 -1.365620 -1.647460 0
M  V30 50 H -5.809790 0.244580 -2.408130 0
M  V30 51 H -5.214410 -1.167790 -3.278030 0
M  V30 52 C -3.124930 -1.874070 -1.785610 0
M  V30 53 H -2.109460 -1.816400 -1.395710 0
M  V30 54 H -3.666750 -2.616370 -1.188030 0
M  V30 55 H -3.081440 -2.233790 -2.820760 0
M  V30 56 C 3.219870 -2.160420 -1.253820 0
M  V30 57 H 3.208600 -3.247100 -1.115720 0
M  V30 58 H 2.188730 -1.806110 -1.226230 0
M  V30 59 H 3.639810 -1.940350 -2.243520 0
M  V30 60 C 3.498610 -1.871130 1.239330 0
M  V30 61 H 3.570370 -2.952670 1.400430 0
M  V30 62 H 4.049930 -1.364950 2.042770 0
M  V30 63 H 2.443540 -1.609180 1.296750 0
M  V30 64 C 5.511410 -2.041150 -0.244420 0
M  V30 65 H 5.993080 -1.746660 -1.184610 0
M  V30 66 H 6.141350 -1.705330 0.588160 0
M  V30 67 H 5.487930 -3.135560 -0.209900 0
M  V30 68 O -0.080110 -0.105130 -2.088820 0
M  V30 69 H -0.047660 -0.996830 -2.467330 0
M  V30 70 Br -0.137600 -2.580840 0.607190 0
M  V30 END ATOM
M  V30 BEGIN BOND
M  V30 1 1 47 44
M  V30 2 1 51 48
M  V30 3 1 55 52
M  V30 4 1 44 45
M  V30 5 1 44 46
M  V30 6 1 44 42
M  V30 7 1 69 68
M  V30 8 1 50 48
M  V30 9 1 48 42
M  V30 10 1 48 49
M  V30 11 1 31 16
M  V30 12 1 59 56
M  V30 13 1 68 1
M  V30 14 1 37 20
M  V30 15 1 52 42
M  V30 16 1 52 53
M  V30 17 1 52 54
M  V30 18 1 42 6
M  V30 19 1 30 16
M  V30 20 1 16 12
M  V30 21 1 16 5
M  V30 22 1 56 58
M  V30 23 1 56 57
M  V30 24 1 56 43
M  V30 25 1 65 64
M  V30 26 1 36 20
M  V30 27 1 20 38
M  V30 28 1 20 5
M  V30 29 1 29 14
M  V30 30 1 12 14
M  V30 31 2 12 3
M  V30 32 2 14 15
M  V30 33 1 3 11
M  V30 34 1 15 28
M  V30 35 1 15 13
M  V30 36 1 5 18
M  V30 37 2 11 13
M  V30 38 1 11 43
M  V30 39 1 6 8
M  V30 40 2 6 2
M  V30 41 1 22 8
M  V30 42 1 64 67
M  V30 43 1 64 43
M  V30 44 1 64 66
M  V30 45 1 13 27
M  V30 46 1 1 70
M  V30 47 1 43 60
M  V30 48 2 8 10
M  V30 49 1 2 7
M  V30 50 1 34 18
M  V30 51 1 18 35
M  V30 52 1 18 19
M  V30 53 1 60 63
M  V30 54 1 60 61
M  V30 55 1 60 62
M  V30 56 1 10 23
M  V30 57 1 10 9
M  V30 58 1 32 19
M  V30 59 2 7 9
M  V30 60 1 7 17
M  V30 61 1 19 4
M  V30 62 1 19 33
M  V30 63 1 4 17
M  V30 64 1 4 21
M  V30 65 1 39 21
M  V30 66 1 9 24
M  V30 67 1 17 26
M  V30 68 1 17 25
M  V30 69 1 21 40
M  V30 70 1 21 41
M  V30 71 9 2 1
M  V30 72 9 4 1
M  V30 73 9 5 1
M  V30 END BOND
M  V30 END CTAB
M  END
