
     RDKit          3D

  0  0  0  0  0  0  0  0  0  0999 V3000
M  V30 BEGIN CTAB
M  V30 COUNTS 68 75 0 0 0
M  V30 BEGIN ATOM
M  V30 1 Fe 0.758260 -0.297620 -0.093540 0 VAL=5
M  V30 2 N 1.184340 -2.350020 -0.937370 0
M  V30 3 C 2.592780 -2.591860 -0.591500 0
M  V30 4 C 0.967420 -2.101710 -2.377580 0
M  V30 5 C 0.229610 -3.290250 -0.330970 0
M  V30 6 H 1.764790 -1.427290 -2.701010 0
M  V30 7 H -0.491900 -3.638930 -1.075000 0
M  V30 8 H 0.738870 -4.188710 0.039000 0
M  V30 9 H 2.627060 -2.974940 0.433320 0
M  V30 10 H 3.062140 -3.333540 -1.251440 0
M  V30 11 C -0.387150 -1.428970 -2.599730 0
M  V30 12 H -1.199480 -2.167230 -2.513140 0
M  V30 13 H -0.440730 -1.064420 -3.634430 0
M  V30 14 N 2.688660 -0.166890 -0.443320 0
M  V30 15 N -0.032440 -1.533350 1.328000 0
M  V30 16 C -0.573460 -1.030410 2.595000 0
M  V30 17 N -0.551370 -0.337150 -1.643040 0
M  V30 18 C -1.789520 0.254290 -1.672660 0
M  V30 19 O -2.760420 -0.218830 -2.318330 0
M  V30 20 K -3.302010 -1.689490 -0.037020 0 VAL=4
M  V30 21 N -1.943150 1.351510 -0.857810 0
M  V30 22 H -1.103320 1.659010 -0.369530 0
M  V30 23 C -3.214100 2.873230 -2.344360 0
M  V30 24 H -2.290240 3.377270 -2.649140 0
M  V30 25 H -3.419750 2.065380 -3.051100 0
M  V30 26 C -4.382610 1.642430 -0.477160 0
M  V30 27 H -5.197970 2.374280 -0.467700 0
M  V30 28 H -4.650340 0.842420 -1.173060 0
M  V30 29 C -3.062970 2.307140 -0.919950 0
M  V30 30 H -2.580830 3.043150 1.080100 0
M  V30 31 H -1.780980 3.933520 -0.229790 0
M  V30 32 H -3.508800 4.184800 0.082050 0
M  V30 33 H 1.043550 -3.032900 -2.960500 0
M  V30 34 H -4.284230 1.245400 0.543060 0
M  V30 35 H -4.033880 3.600170 -2.386650 0
M  V30 36 C -2.711590 3.434490 0.064460 0
M  V30 37 C 3.425350 -1.301860 -0.619180 0
M  V30 38 O 4.645490 -1.382900 -0.755740 0
M  V30 39 C 3.414010 1.103830 -0.448250 0
M  V30 40 C 2.760490 2.196940 -1.312580 0
M  V30 41 H 1.699410 2.261500 -1.047900 0
M  V30 42 H 2.835150 1.987820 -2.385710 0
M  V30 43 C 3.504970 1.786460 0.930730 0
M  V30 44 H 2.507360 1.763650 1.380570 0
M  V30 45 H 4.201370 1.273900 1.602660 0
M  V30 46 H 4.426770 0.906510 -0.818320 0
M  V30 47 C 3.913390 3.243150 0.607590 0
M  V30 48 C 3.497970 3.480240 -0.880820 0
M  V30 49 H 4.993470 3.382790 0.728320 0
M  V30 50 H 3.426150 3.952240 1.285500 0
M  V30 51 H 4.389970 3.627940 -1.501070 0
M  V30 52 H 2.875400 4.372880 -1.004070 0
M  V30 53 C -0.541290 -2.675440 0.845530 0
M  V30 54 O -1.570180 -3.270210 1.246740 0 RAD=2 VAL=1
M  V30 55 C -1.744000 0.005040 2.468660 0
M  V30 56 H -1.909930 0.284860 1.424330 0
M  V30 57 H -2.670030 -0.429860 2.872310 0
M  V30 58 C 0.512010 -0.303430 3.419390 0
M  V30 59 H 1.125530 -1.003220 3.996570 0
M  V30 60 H 1.173130 0.240220 2.736310 0
M  V30 61 H -0.940300 -1.895430 3.158220 0
M  V30 62 C -1.315270 1.244050 3.286990 0
M  V30 63 C -0.270330 0.699560 4.277290 0
M  V30 64 H 0.364510 1.483980 4.703180 0
M  V30 65 H -0.765740 0.184850 5.112810 0
M  V30 66 H -0.827910 1.950730 2.609120 0
M  V30 67 H -2.156070 1.750470 3.773980 0
M  V30 68 F 0.347280 1.354490 0.640170 0
M  V30 END ATOM
M  V30 BEGIN BOND
M  V30 1 1 13 11
M  V30 2 1 25 23
M  V30 3 1 33 4
M  V30 4 1 6 4
M  V30 5 1 24 23
M  V30 6 1 11 12
M  V30 7 1 11 4
M  V30 8 1 11 17
M  V30 9 1 35 23
M  V30 10 1 42 40
M  V30 11 1 4 2
M  V30 12 1 23 29
M  V30 13 2 19 18
M  V30 14 1 18 17
M  V30 15 1 18 21
M  V30 16 1 17 1
M  V30 17 1 51 48
M  V30 18 1 40 41
M  V30 19 1 40 48
M  V30 20 1 40 39
M  V30 21 1 10 3
M  V30 22 1 28 26
M  V30 23 1 7 5
M  V30 24 1 52 48
M  V30 25 1 2 3
M  V30 26 1 2 5
M  V30 27 1 29 21
M  V30 28 1 29 26
M  V30 29 1 29 36
M  V30 30 1 48 47
M  V30 31 1 21 22
M  V30 32 1 46 39
M  V30 33 2 38 37
M  V30 34 1 37 3
M  V30 35 1 37 14
M  V30 36 1 3 9
M  V30 37 1 26 27
M  V30 38 1 26 34
M  V30 39 1 39 14
M  V30 40 1 39 43
M  V30 41 1 14 1
M  V30 42 1 5 8
M  V30 43 1 5 53
M  V30 44 1 31 36
M  V30 45 1 1 68
M  V30 46 1 36 32
M  V30 47 1 36 30
M  V30 48 1 47 49
M  V30 49 1 47 43
M  V30 50 1 47 50
M  V30 51 1 53 54
M  V30 52 2 53 15
M  V30 53 1 43 44
M  V30 54 1 43 45
M  V30 55 1 15 16
M  V30 56 1 56 55
M  V30 57 1 55 16
M  V30 58 1 55 57
M  V30 59 1 55 62
M  V30 60 1 16 61
M  V30 61 1 16 58
M  V30 62 1 66 62
M  V30 63 1 60 58
M  V30 64 1 62 67
M  V30 65 1 62 63
M  V30 66 1 58 59
M  V30 67 1 58 63
M  V30 68 1 63 64
M  V30 69 1 63 65
M  V30 70 9 2 1
M  V30 71 9 15 1
M  V30 72 9 15 20
M  V30 73 9 17 20
M  V30 74 9 19 20
M  V30 75 9 21 20
M  V30 END BOND
M  V30 END CTAB
M  END
