
     RDKit          3D

  0  0  0  0  0  0  0  0  0  0999 V3000
M  V30 BEGIN CTAB
M  V30 COUNTS 68 75 0 0 0
M  V30 BEGIN ATOM
M  V30 1 Fe 0.678710 -0.349960 -0.286420 0 VAL=5
M  V30 2 N 0.839600 -2.350910 -1.274470 0
M  V30 3 C 2.132180 -2.856440 -0.801010 0
M  V30 4 C 0.816630 -1.967630 -2.697170 0
M  V30 5 C -0.306330 -3.142190 -0.825840 0
M  V30 6 H 1.740690 -1.418260 -2.886980 0
M  V30 7 H -1.123870 -3.047180 -1.544410 0
M  V30 8 H -0.069110 -4.212760 -0.762560 0
M  V30 9 H 1.988810 -3.253050 0.208850 0
M  V30 10 H 2.524940 -3.659920 -1.437870 0
M  V30 11 C -0.400820 -1.073380 -2.967900 0
M  V30 12 H -1.285690 -1.675850 -3.197180 0
M  V30 13 H -0.203720 -0.472030 -3.865470 0
M  V30 14 N 2.616300 -0.473970 -0.661590 0
M  V30 15 N -0.157360 -1.635640 1.083800 0
M  V30 16 C -0.415290 -1.384270 2.508010 0
M  V30 17 N -0.681750 -0.201480 -1.817050 0
M  V30 18 C -1.997710 0.161810 -1.735740 0
M  V30 19 O -2.906250 -0.303300 -2.459140 0
M  V30 20 K -3.535920 -1.425160 0.268360 0 VAL=4
M  V30 21 N -2.337670 1.032890 -0.684830 0
M  V30 22 H -1.505980 1.435950 -0.257450 0
M  V30 23 C -3.059880 2.882360 -2.190270 0
M  V30 24 H -2.047000 3.298890 -2.155380 0
M  V30 25 H -3.136740 2.221060 -3.058220 0
M  V30 26 C -4.782170 1.524020 -0.950320 0
M  V30 27 H -5.510560 2.330900 -1.086190 0
M  V30 28 H -4.880760 0.817770 -1.776870 0
M  V30 29 C -3.358250 2.105520 -0.894690 0
M  V30 30 H -3.412690 2.489340 1.254420 0
M  V30 31 H -2.243990 3.490860 0.379900 0
M  V30 32 H -3.980040 3.842830 0.251540 0
M  V30 33 H 0.802810 -2.853030 -3.351050 0
M  V30 34 H -5.038180 1.027800 -0.000990 0
M  V30 35 H -3.767580 3.709390 -2.318980 0
M  V30 36 C -3.239720 3.038820 0.321000 0
M  V30 37 C 3.164420 -1.729220 -0.729540 0
M  V30 38 O 4.361930 -2.005600 -0.741630 0
M  V30 39 C 3.582140 0.624610 -0.793820 0
M  V30 40 C 3.054610 1.840680 -1.608140 0
M  V30 41 H 1.961650 1.840340 -1.654110 0
M  V30 42 H 3.419310 1.785000 -2.640580 0
M  V30 43 C 4.097470 1.203640 0.539220 0
M  V30 44 H 3.264130 1.318840 1.239100 0
M  V30 45 H 4.844880 0.546120 0.994860 0
M  V30 46 H 4.449980 0.208280 -1.315660 0
M  V30 47 C 4.640260 2.578820 0.124280 0
M  V30 48 C 3.581260 3.100350 -0.872200 0
M  V30 49 H 5.609960 2.459230 -0.378720 0
M  V30 50 H 4.793150 3.254790 0.972860 0
M  V30 51 H 3.982940 3.853850 -1.558520 0
M  V30 52 H 2.759800 3.564380 -0.316440 0
M  V30 53 C -0.805990 -2.683060 0.544900 0
M  V30 54 O -1.787230 -3.287150 1.036060 0 RAD=2 VAL=1
M  V30 55 C -1.517700 -0.329040 2.835140 0
M  V30 56 H -1.706450 0.306580 1.964480 0
M  V30 57 H -2.453820 -0.838120 3.108380 0
M  V30 58 C 0.838390 -0.903120 3.260420 0
M  V30 59 H 1.535210 -1.725720 3.455500 0
M  V30 60 H 1.363330 -0.151250 2.662910 0
M  V30 61 H -0.731870 -2.338390 2.944250 0
M  V30 62 C -0.969400 0.514190 4.016030 0
M  V30 63 C 0.261430 -0.263580 4.530480 0
M  V30 64 H 0.979620 0.379100 5.050050 0
M  V30 65 H -0.049750 -1.046750 5.235750 0
M  V30 66 H -0.649780 1.490570 3.639370 0
M  V30 67 H -1.717120 0.686280 4.797800 0
M  V30 68 Br 0.509570 1.920750 0.882040 0
M  V30 END ATOM
M  V30 BEGIN BOND
M  V30 1 1 13 11
M  V30 2 1 33 4
M  V30 3 1 12 11
M  V30 4 1 25 23
M  V30 5 1 11 4
M  V30 6 1 11 17
M  V30 7 1 6 4
M  V30 8 1 4 2
M  V30 9 1 42 40
M  V30 10 2 19 18
M  V30 11 1 35 23
M  V30 12 1 23 24
M  V30 13 1 23 29
M  V30 14 1 17 18
M  V30 15 1 17 1
M  V30 16 1 28 26
M  V30 17 1 18 21
M  V30 18 1 41 40
M  V30 19 1 40 48
M  V30 20 1 40 39
M  V30 21 1 51 48
M  V30 22 1 7 5
M  V30 23 1 10 3
M  V30 24 1 46 39
M  V30 25 1 2 5
M  V30 26 1 2 3
M  V30 27 1 27 26
M  V30 28 1 26 29
M  V30 29 1 26 34
M  V30 30 1 29 21
M  V30 31 1 29 36
M  V30 32 1 48 52
M  V30 33 1 48 47
M  V30 34 1 5 8
M  V30 35 1 5 53
M  V30 36 1 3 37
M  V30 37 1 3 9
M  V30 38 1 39 14
M  V30 39 1 39 43
M  V30 40 2 38 37
M  V30 41 1 37 14
M  V30 42 1 21 22
M  V30 43 1 14 1
M  V30 44 1 49 47
M  V30 45 1 1 68
M  V30 46 1 47 43
M  V30 47 1 47 50
M  V30 48 1 32 36
M  V30 49 1 36 31
M  V30 50 1 36 30
M  V30 51 1 43 45
M  V30 52 1 43 44
M  V30 53 1 53 54
M  V30 54 2 53 15
M  V30 55 1 15 16
M  V30 56 1 56 55
M  V30 57 1 16 55
M  V30 58 1 16 61
M  V30 59 1 16 58
M  V30 60 1 60 58
M  V30 61 1 55 57
M  V30 62 1 55 62
M  V30 63 1 58 59
M  V30 64 1 58 63
M  V30 65 1 66 62
M  V30 66 1 62 63
M  V30 67 1 62 67
M  V30 68 1 63 64
M  V30 69 1 63 65
M  V30 70 9 2 1
M  V30 71 9 15 1
M  V30 72 9 15 20
M  V30 73 9 17 20
M  V30 74 9 19 20
M  V30 75 9 21 20
M  V30 END BOND
M  V30 END CTAB
M  END
