
     RDKit          3D

  0  0  0  0  0  0  0  0  0  0999 V3000
M  V30 BEGIN CTAB
M  V30 COUNTS 76 81 0 0 0
M  V30 BEGIN ATOM
M  V30 1 Fe -0.295180 -0.997720 0.089030 0 VAL=5
M  V30 2 N 1.519280 -1.749730 -0.420420 0
M  V30 3 C 2.761930 -1.354260 0.046180 0
M  V30 4 N 2.900440 -1.315390 1.399680 0
M  V30 5 C 3.953230 -0.561650 2.116010 0
M  V30 6 C 3.571360 -0.601920 3.604290 0
M  V30 7 N -0.850340 -2.479540 -1.711240 0
M  V30 8 C -1.217660 -1.573410 -2.817320 0
M  V30 9 C -1.825910 -0.291810 -2.245520 0
M  V30 10 N -0.901080 0.336150 -1.294820 0
M  V30 11 C -0.355960 1.521930 -1.701620 0
M  V30 12 N 0.422300 2.174910 -0.723200 0
M  V30 13 C 0.461130 3.664380 -0.658270 0
M  V30 14 C 1.300620 4.243400 -1.810960 0
M  V30 15 N -1.811500 -1.983520 0.818110 0
M  V30 16 C -3.043740 -1.315710 0.930970 0
M  V30 17 N -2.960650 -0.150540 1.636250 0
M  V30 18 C -3.958480 0.933950 1.597930 0
M  V30 19 C -4.207120 1.371750 0.141250 0
M  V30 20 C -1.978910 -3.299240 -1.218870 0
M  V30 21 C -1.916560 -3.348550 0.312940 0
M  V30 22 C 0.372230 -3.259640 -1.942490 0
M  V30 23 C 1.594160 -2.376360 -1.741820 0
M  V30 24 O -4.088950 -1.740670 0.419290 0
M  V30 25 O -0.434800 1.990000 -2.853840 0
M  V30 26 O 3.709000 -1.063030 -0.728770 0 RAD=2 VAL=1
M  V30 27 C -0.964710 4.245790 -0.703570 0
M  V30 28 C 1.126770 4.008970 0.683720 0
M  V30 29 C 5.314520 -1.244760 1.901600 0
M  V30 30 C 4.002850 0.905080 1.639910 0
M  V30 31 C -3.352090 2.101220 2.392440 0
M  V30 32 C -5.270830 0.470550 2.254650 0
M  V30 33 K 2.585470 0.930120 -2.038780 0 VAL=4
M  V30 34 H 0.402480 -4.061780 -1.199450 0
M  V30 35 H -0.312550 -1.313430 -3.374350 0
M  V30 36 H -1.907740 -2.069450 -3.517230 0
M  V30 37 H -2.064150 0.400130 -3.057590 0
M  V30 38 H -2.752440 -0.533080 -1.712990 0
M  V30 39 H -2.916940 -2.813000 -1.488980 0
M  V30 40 H -1.962340 -4.301510 -1.673390 0
M  V30 41 H 1.632380 -1.639640 -2.566570 0
M  V30 42 H 2.507940 -2.973600 -1.840400 0
M  V30 43 H -2.809570 -3.848080 0.702970 0
M  V30 44 H -1.030290 -3.902430 0.644800 0
M  V30 45 H -2.051180 0.072230 2.024240 0
M  V30 46 H 2.036940 -1.446780 1.909960 0
M  V30 47 H 0.255880 1.781140 0.202120 0
M  V30 48 H -1.567440 3.837730 0.115750 0
M  V30 49 H -0.942700 5.337010 -0.601890 0
M  V30 50 H 5.285410 -2.273900 2.276170 0
M  V30 51 H 1.328090 5.336820 -1.745720 0
M  V30 52 H 5.561250 -1.269610 0.838050 0
M  V30 53 H 4.707040 1.480960 2.251140 0
M  V30 54 H 4.343680 0.951050 0.600840 0
M  V30 55 H 2.133540 3.577930 0.745690 0
M  V30 56 H 2.609570 -0.105820 3.775270 0
M  V30 57 H 3.498600 -1.637690 3.956680 0
M  V30 58 H 4.334790 -0.092710 4.201530 0
M  V30 59 H 0.545410 3.619900 1.527180 0
M  V30 60 H 1.209960 5.095200 0.795900 0
M  V30 61 H -3.152010 1.808650 3.429950 0
M  V30 62 H -2.406960 2.430720 1.944200 0
M  V30 63 H -4.044150 2.949570 2.402490 0
M  V30 64 H -5.092840 0.181240 3.296520 0
M  V30 65 H -6.010110 1.280600 2.240080 0
M  V30 66 H -5.672950 -0.391210 1.717940 0
M  V30 67 H -4.902490 2.218710 0.109930 0
M  V30 68 H -3.264010 1.671790 -0.328840 0
M  V30 69 H 0.878370 3.954970 -2.775190 0
M  V30 70 H 2.343560 3.895930 -1.746590 0
M  V30 71 H 0.373330 -3.721630 -2.943480 0
M  V30 72 H -4.637100 0.547230 -0.432840 0
M  V30 73 H 3.011110 1.361880 1.722370 0
M  V30 74 H 6.099620 -0.701590 2.441330 0
M  V30 75 H -1.449360 3.993230 -1.650570 0
M  V30 76 Cl 0.264050 0.401520 1.993660 0
M  V30 END ATOM
M  V30 BEGIN BOND
M  V30 1 1 36 8
M  V30 2 1 35 8
M  V30 3 1 37 9
M  V30 4 1 71 22
M  V30 5 2 25 11
M  V30 6 1 8 9
M  V30 7 1 8 7
M  V30 8 1 69 14
M  V30 9 1 41 23
M  V30 10 1 9 38
M  V30 11 1 9 10
M  V30 12 1 22 23
M  V30 13 1 22 7
M  V30 14 1 22 34
M  V30 15 1 42 23
M  V30 16 1 14 70
M  V30 17 1 14 51
M  V30 18 1 14 13
M  V30 19 1 23 2
M  V30 20 1 7 20
M  V30 21 1 11 10
M  V30 22 1 11 12
M  V30 23 1 40 20
M  V30 24 1 75 27
M  V30 25 1 39 20
M  V30 26 1 10 1
M  V30 27 1 20 21
M  V30 28 1 26 3
M  V30 29 1 12 13
M  V30 30 1 12 47
M  V30 31 1 27 13
M  V30 32 1 27 49
M  V30 33 1 27 48
M  V30 34 1 13 28
M  V30 35 1 72 19
M  V30 36 2 2 3
M  V30 37 1 68 19
M  V30 38 1 3 4
M  V30 39 1 1 15
M  V30 40 1 1 76
M  V30 41 1 67 19
M  V30 42 1 19 18
M  V30 43 1 21 44
M  V30 44 1 21 43
M  V30 45 1 21 15
M  V30 46 2 24 16
M  V30 47 1 54 30
M  V30 48 1 28 55
M  V30 49 1 28 60
M  V30 50 1 28 59
M  V30 51 1 15 16
M  V30 52 1 52 29
M  V30 53 1 16 17
M  V30 54 1 4 46
M  V30 55 1 4 5
M  V30 56 1 18 17
M  V30 57 1 18 32
M  V30 58 1 18 31
M  V30 59 1 17 45
M  V30 60 1 30 73
M  V30 61 1 30 5
M  V30 62 1 30 53
M  V30 63 1 66 32
M  V30 64 1 29 5
M  V30 65 1 29 50
M  V30 66 1 29 74
M  V30 67 1 62 31
M  V30 68 1 5 6
M  V30 69 1 65 32
M  V30 70 1 32 64
M  V30 71 1 31 63
M  V30 72 1 31 61
M  V30 73 1 6 56
M  V30 74 1 6 57
M  V30 75 1 6 58
M  V30 76 9 2 1
M  V30 77 9 7 1
M  V30 78 9 2 33
M  V30 79 9 10 33
M  V30 80 9 12 33
M  V30 81 9 25 33
M  V30 END BOND
M  V30 END CTAB
M  END
