
     RDKit          3D

  0  0  0  0  0  0  0  0  0  0999 V3000
M  V30 BEGIN CTAB
M  V30 COUNTS 76 82 0 0 0
M  V30 BEGIN ATOM
M  V30 1 Fe 0.553910 -0.987150 -0.372090 0 VAL=5
M  V30 2 N -1.188600 -2.009980 -0.298950 0
M  V30 3 C -2.438440 -1.528490 -0.636720 0
M  V30 4 N -2.469950 -0.584830 -1.623110 0
M  V30 5 C -3.679100 0.095560 -2.112260 0
M  V30 6 C -3.195960 1.106850 -3.164880 0
M  V30 7 N 1.162370 -2.771580 0.993480 0
M  V30 8 C 1.138390 -2.229810 2.367900 0
M  V30 9 C 1.540550 -0.750270 2.355610 0
M  V30 10 N 0.740110 -0.007000 1.384270 0
M  V30 11 C -0.079730 0.964310 1.872710 0
M  V30 12 N -0.753300 1.712990 0.894990 0
M  V30 13 C -1.065000 3.151220 1.115800 0
M  V30 14 C -2.270650 3.306880 2.061350 0
M  V30 15 N 2.252980 -1.498030 -1.186710 0
M  V30 16 C 3.292080 -0.562440 -1.094550 0
M  V30 17 N 2.925730 0.692070 -1.515320 0
M  V30 18 C 3.609310 1.928130 -1.089550 0
M  V30 19 C 3.704850 1.983840 0.448580 0
M  V30 20 C 2.514630 -3.179980 0.546200 0
M  V30 21 C 2.655380 -2.878750 -0.950430 0
M  V30 22 C 0.136130 -3.791920 0.719570 0
M  V30 23 C -1.244520 -3.155430 0.605330 0
M  V30 24 O 4.418740 -0.842240 -0.664880 0
M  V30 25 O -0.332880 1.148670 3.086120 0
M  V30 26 O -3.481990 -1.899770 -0.038190 0 RAD=2 VAL=1
M  V30 27 C 0.151990 3.898840 1.694720 0
M  V30 28 C -1.417990 3.731500 -0.262930 0
M  V30 29 C -4.632120 -0.925700 -2.758960 0
M  V30 30 C -4.409170 0.848750 -0.979120 0
M  V30 31 C 2.739390 3.088760 -1.596850 0
M  V30 32 C 5.009600 2.003550 -1.721560 0
M  V30 33 K -2.718520 -0.220520 2.011310 0 VAL=5
M  V30 34 H 0.384880 -4.254340 -0.239530 0
M  V30 35 H 0.117710 -2.315130 2.753330 0
M  V30 36 H 1.790830 -2.817510 3.032320 0
M  V30 37 H 1.422920 -0.327420 3.357730 0
M  V30 38 H 2.595310 -0.658410 2.066800 0
M  V30 39 H 3.252650 -2.567520 1.068150 0
M  V30 40 H 2.703810 -4.237330 0.789660 0
M  V30 41 H -1.597810 -2.874640 1.615820 0
M  V30 42 H -1.965060 -3.903680 0.254470 0
M  V30 43 H 3.692050 -3.045090 -1.259180 0
M  V30 44 H 2.006300 -3.534890 -1.542940 0
M  V30 45 H 1.951590 0.793330 -1.783490 0
M  V30 46 H -1.573920 -0.189300 -1.898270 0
M  V30 47 H -0.416010 1.516890 -0.048920 0
M  V30 48 H 1.013180 3.801380 1.025060 0
M  V30 49 H -0.072000 4.965490 1.812350 0
M  V30 50 H -4.133380 -1.430600 -3.593340 0
M  V30 51 H -2.512610 4.366270 2.203090 0
M  V30 52 H -4.930630 -1.677560 -2.024590 0
M  V30 53 H -5.243730 1.435020 -1.380070 0
M  V30 54 H -4.809960 0.134540 -0.254380 0
M  V30 55 H -2.269490 3.206000 -0.708330 0
M  V30 56 H -2.500310 1.830960 -2.724360 0
M  V30 57 H -2.679040 0.594820 -3.984460 0
M  V30 58 H -4.045490 1.655220 -3.584670 0
M  V30 59 H -0.571460 3.651570 -0.954550 0
M  V30 60 H -1.680300 4.790650 -0.170740 0
M  V30 61 H 2.648370 3.061780 -2.689190 0
M  V30 62 H 1.731350 3.032870 -1.168270 0
M  V30 63 H 3.180640 4.049360 -1.311430 0
M  V30 64 H 4.934050 1.983320 -2.814620 0
M  V30 65 H 5.512410 2.931890 -1.423760 0
M  V30 66 H 5.609770 1.150400 -1.399380 0
M  V30 67 H 4.156320 2.928640 0.773950 0
M  V30 68 H 2.706920 1.896070 0.892110 0
M  V30 69 H -2.043100 2.869010 3.036310 0
M  V30 70 H -3.162000 2.826030 1.632710 0
M  V30 71 H 0.140940 -4.583500 1.486570 0
M  V30 72 H 4.319880 1.158410 0.816330 0
M  V30 73 H -3.720440 1.540970 -0.479640 0
M  V30 74 H -5.529160 -0.424710 -3.142470 0
M  V30 75 H 0.423600 3.489070 2.670840 0
M  V30 76 F 0.059610 0.490680 -1.485820 0
M  V30 END ATOM
M  V30 BEGIN BOND
M  V30 1 1 57 6
M  V30 2 1 50 29
M  V30 3 1 58 6
M  V30 4 1 6 56
M  V30 5 1 6 5
M  V30 6 1 74 29
M  V30 7 1 64 32
M  V30 8 1 29 5
M  V30 9 1 29 52
M  V30 10 1 61 31
M  V30 11 1 5 4
M  V30 12 1 5 30
M  V30 13 1 46 4
M  V30 14 1 45 17
M  V30 15 1 32 65
M  V30 16 1 32 66
M  V30 17 1 32 18
M  V30 18 1 4 3
M  V30 19 1 31 63
M  V30 20 1 31 62
M  V30 21 1 31 18
M  V30 22 1 44 21
M  V30 23 1 17 16
M  V30 24 1 17 18
M  V30 25 1 76 1
M  V30 26 1 53 30
M  V30 27 1 43 21
M  V30 28 1 15 16
M  V30 29 1 15 21
M  V30 30 1 15 1
M  V30 31 2 16 24
M  V30 32 1 18 19
M  V30 33 1 30 73
M  V30 34 1 30 54
M  V30 35 1 59 28
M  V30 36 1 21 20
M  V30 37 1 55 28
M  V30 38 2 3 2
M  V30 39 1 3 26
M  V30 40 1 1 10
M  V30 41 1 2 23
M  V30 42 1 28 60
M  V30 43 1 28 13
M  V30 44 1 34 22
M  V30 45 1 47 12
M  V30 46 1 42 23
M  V30 47 1 19 67
M  V30 48 1 19 72
M  V30 49 1 19 68
M  V30 50 1 20 40
M  V30 51 1 20 7
M  V30 52 1 20 39
M  V30 53 1 23 22
M  V30 54 1 23 41
M  V30 55 1 22 7
M  V30 56 1 22 71
M  V30 57 1 12 13
M  V30 58 1 12 11
M  V30 59 1 7 8
M  V30 60 1 48 27
M  V30 61 1 13 27
M  V30 62 1 13 14
M  V30 63 1 10 11
M  V30 64 1 10 9
M  V30 65 1 70 14
M  V30 66 1 27 49
M  V30 67 1 27 75
M  V30 68 2 11 25
M  V30 69 1 14 51
M  V30 70 1 14 69
M  V30 71 1 38 9
M  V30 72 1 9 8
M  V30 73 1 9 37
M  V30 74 1 8 35
M  V30 75 1 8 36
M  V30 76 9 2 1
M  V30 77 9 7 1
M  V30 78 9 2 33
M  V30 79 9 4 33
M  V30 80 9 10 33
M  V30 81 9 12 33
M  V30 82 9 25 33
M  V30 END BOND
M  V30 END CTAB
M  END
