
     RDKit          3D

  0  0  0  0  0  0  0  0  0  0999 V3000
M  V30 BEGIN CTAB
M  V30 COUNTS 69 76 0 0 0
M  V30 BEGIN ATOM
M  V30 1 O 0.322060 1.375870 0.761180 0
M  V30 2 Fe 0.781720 -0.256500 -0.065760 0 VAL=5
M  V30 3 N 1.298930 -2.281860 -0.985150 0
M  V30 4 C 2.710840 -2.485580 -0.637050 0
M  V30 5 C 1.079150 -1.986500 -2.414920 0
M  V30 6 C 0.376860 -3.281090 -0.427720 0
M  V30 7 H 1.851970 -1.272280 -2.710200 0
M  V30 8 H -0.302920 -3.654200 -1.199130 0
M  V30 9 H 0.921820 -4.158420 -0.057740 0
M  V30 10 H 2.752660 -2.894200 0.377630 0
M  V30 11 H 3.211680 -3.193270 -1.311940 0
M  V30 12 C -0.297120 -1.353870 -2.620390 0
M  V30 13 H -1.082130 -2.124060 -2.550110 0
M  V30 14 H -0.365790 -0.971430 -3.647810 0
M  V30 15 N 2.724050 -0.060530 -0.461800 0
M  V30 16 N -0.005280 -1.596060 1.281980 0
M  V30 17 C -0.623040 -1.175540 2.543920 0
M  V30 18 N -0.496720 -0.287260 -1.642810 0
M  V30 19 C -1.738220 0.298990 -1.696850 0
M  V30 20 O -2.689520 -0.176860 -2.371630 0
M  V30 21 K -3.210860 -1.787600 -0.203510 0 VAL=4
M  V30 22 N -1.912360 1.389700 -0.884010 0
M  V30 23 H -1.090710 1.690460 -0.353140 0
M  V30 24 C -3.281580 2.887680 -2.300770 0
M  V30 25 H -2.389870 3.446390 -2.606170 0
M  V30 26 H -3.457710 2.089600 -3.026190 0
M  V30 27 C -4.356000 1.553570 -0.448320 0
M  V30 28 H -5.202460 2.247730 -0.398880 0
M  V30 29 H -4.603130 0.765840 -1.165670 0
M  V30 30 C -3.075710 2.289620 -0.896230 0
M  V30 31 H -2.593910 2.991670 1.115520 0
M  V30 32 H -1.856310 3.952120 -0.181450 0
M  V30 33 H -3.588350 4.118320 0.164030 0
M  V30 34 H 1.188830 -2.892130 -3.032690 0
M  V30 35 H -4.217630 1.127790 0.555130 0
M  V30 36 H -4.137920 3.572700 -2.308700 0
M  V30 37 C -2.759200 3.404910 0.113810 0
M  V30 38 C 3.498670 -1.169380 -0.631160 0
M  V30 39 O 4.724330 -1.206400 -0.751000 0
M  V30 40 C 3.429670 1.221030 -0.494590 0
M  V30 41 C 2.664340 2.346590 -1.259800 0
M  V30 42 H 1.622830 2.064160 -1.438510 0
M  V30 43 H 3.123120 2.507450 -2.241440 0
M  V30 44 C 3.734320 1.809510 0.902080 0
M  V30 45 H 2.884400 1.625800 1.574540 0
M  V30 46 H 4.610650 1.337140 1.356850 0
M  V30 47 H 4.389860 1.045520 -0.989650 0
M  V30 48 C 3.896270 3.311490 0.632780 0
M  V30 49 C 2.767400 3.615580 -0.374590 0
M  V30 50 H 4.872980 3.499070 0.166930 0
M  V30 51 H 3.842710 3.926970 1.537920 0
M  V30 52 H 2.946910 4.527360 -0.953940 0
M  V30 53 H 1.823720 3.774070 0.166970 0
M  V30 54 C -0.458660 -2.732730 0.735510 0
M  V30 55 O -1.483320 -3.374770 1.072650 0 RAD=2 VAL=1
M  V30 56 C -1.829540 -0.185900 2.409740 0
M  V30 57 H -1.897350 0.202440 1.389340 0
M  V30 58 H -2.768170 -0.701870 2.661670 0
M  V30 59 C 0.381370 -0.451150 3.462640 0
M  V30 60 H 1.026020 -1.153900 4.001390 0
M  V30 61 H 1.015510 0.195030 2.847050 0
M  V30 62 H -0.980560 -2.079720 3.049450 0
M  V30 63 C -1.553500 0.973610 3.395910 0
M  V30 64 C -0.504350 0.409310 4.373120 0
M  V30 65 H 0.052310 1.191920 4.900440 0
M  V30 66 H -0.989760 -0.217930 5.134170 0
M  V30 67 H -1.111540 1.802890 2.834760 0
M  V30 68 H -2.457620 1.338590 3.895930 0
M  V30 69 H 1.017060 2.014210 0.970350 0
M  V30 END ATOM
M  V30 BEGIN BOND
M  V30 1 1 14 12
M  V30 2 1 34 5
M  V30 3 1 26 24
M  V30 4 1 7 5
M  V30 5 1 12 13
M  V30 6 1 12 5
M  V30 7 1 12 18
M  V30 8 1 25 24
M  V30 9 1 5 3
M  V30 10 2 20 19
M  V30 11 1 36 24
M  V30 12 1 24 30
M  V30 13 1 43 41
M  V30 14 1 19 18
M  V30 15 1 19 22
M  V30 16 1 18 2
M  V30 17 1 42 41
M  V30 18 1 11 4
M  V30 19 1 41 40
M  V30 20 1 41 49
M  V30 21 1 8 6
M  V30 22 1 29 27
M  V30 23 1 47 40
M  V30 24 1 3 4
M  V30 25 1 3 6
M  V30 26 1 52 49
M  V30 27 1 30 22
M  V30 28 1 30 27
M  V30 29 1 30 37
M  V30 30 1 22 23
M  V30 31 2 39 38
M  V30 32 1 4 38
M  V30 33 1 4 10
M  V30 34 1 38 15
M  V30 35 1 40 15
M  V30 36 1 40 44
M  V30 37 1 15 2
M  V30 38 1 27 28
M  V30 39 1 27 35
M  V30 40 1 6 9
M  V30 41 1 6 54
M  V30 42 1 49 53
M  V30 43 1 49 48
M  V30 44 1 32 37
M  V30 45 1 2 1
M  V30 46 1 37 33
M  V30 47 1 37 31
M  V30 48 1 50 48
M  V30 49 1 48 44
M  V30 50 1 48 51
M  V30 51 1 54 55
M  V30 52 2 54 16
M  V30 53 1 1 69
M  V30 54 1 44 46
M  V30 55 1 44 45
M  V30 56 1 16 17
M  V30 57 1 57 56
M  V30 58 1 56 17
M  V30 59 1 56 58
M  V30 60 1 56 63
M  V30 61 1 17 62
M  V30 62 1 17 59
M  V30 63 1 67 63
M  V30 64 1 61 59
M  V30 65 1 63 68
M  V30 66 1 63 64
M  V30 67 1 59 60
M  V30 68 1 59 64
M  V30 69 1 64 65
M  V30 70 1 64 66
M  V30 71 9 3 2
M  V30 72 9 16 2
M  V30 73 9 16 21
M  V30 74 9 18 21
M  V30 75 9 20 21
M  V30 76 9 22 21
M  V30 END BOND
M  V30 END CTAB
M  END
