
     RDKit          3D

  0  0  0  0  0  0  0  0  0  0999 V3000
M  V30 BEGIN CTAB
M  V30 COUNTS 33 35 0 0 0
M  V30 BEGIN ATOM
M  V30 1 C 1.692050 -1.670440 1.262140 0
M  V30 2 C 0.615040 -1.283280 2.274190 0
M  V30 3 C 1.525240 2.551910 -0.936260 0
M  V30 4 C 0.599970 2.301160 1.261280 0
M  V30 5 C -2.972700 0.044410 -0.936810 0
M  V30 6 C -1.419850 0.109280 2.273570 0
M  V30 7 C -2.293140 -0.630010 1.261170 0
M  V30 8 C 1.448000 -2.596980 -0.935560 0
M  V30 9 C 0.803540 1.175240 2.273660 0
M  V30 10 Fe 0.000030 -0.000020 -0.508390 0 VAL=5
M  V30 11 H 2.053660 -2.685360 1.460770 0
M  V30 12 H 2.556760 -0.995140 1.349970 0
M  V30 13 H 1.015830 -1.240690 3.302050 0
M  V30 14 H -0.166160 -2.048210 2.250930 0
M  V30 15 H 1.298020 3.121930 1.459560 0
M  V30 16 H -0.417340 2.712070 1.349050 0
M  V30 17 H 0.566450 1.501330 3.301450 0
M  V30 18 H 1.856580 0.881230 2.250090 0
M  V30 19 H -3.352990 -0.435760 1.459320 0
M  V30 20 H -2.140600 -1.716500 1.349070 0
M  V30 21 H -1.583830 -0.259160 3.301320 0
M  V30 22 H -1.691690 1.168330 2.250220 0
M  V30 23 N 1.125850 -1.588310 -0.078710 0
M  V30 24 N -0.000360 0.000330 1.895650 0
M  V30 25 N -1.938390 -0.180890 -0.079550 0
M  V30 26 N 0.811900 1.769370 -0.079400 0
M  V30 27 O -4.175040 -0.084220 -0.686310 0
M  V30 28 O 2.160510 -3.573850 -0.684620 0
M  V30 29 O 2.015830 3.657100 -0.685530 0 CHG=-1 VAL=1
M  V30 30 H 0.986930 -2.459200 -1.928430 0
M  V30 31 H 1.636350 2.083390 -1.928980 0
M  V30 32 H -2.622590 0.374780 -1.929580 0
M  V30 33 Cl 0.000680 -0.000350 -2.824550 0
M  V30 END ATOM
M  V30 BEGIN BOND
M  V30 1 1 33 10
M  V30 2 1 32 5
M  V30 3 1 31 3
M  V30 4 1 30 8
M  V30 5 2 5 27
M  V30 6 1 5 25
M  V30 7 1 3 29
M  V30 8 2 3 26
M  V30 9 2 8 28
M  V30 10 1 8 23
M  V30 11 1 10 25
M  V30 12 1 10 23
M  V30 13 1 25 7
M  V30 14 1 26 4
M  V30 15 1 23 1
M  V30 16 1 7 20
M  V30 17 1 7 19
M  V30 18 1 7 6
M  V30 19 1 4 16
M  V30 20 1 4 15
M  V30 21 1 4 9
M  V30 22 1 1 12
M  V30 23 1 1 11
M  V30 24 1 1 2
M  V30 25 1 24 6
M  V30 26 1 24 9
M  V30 27 1 24 2
M  V30 28 1 18 9
M  V30 29 1 22 6
M  V30 30 1 14 2
M  V30 31 1 6 21
M  V30 32 1 9 17
M  V30 33 1 2 13
M  V30 34 9 24 10
M  V30 35 9 26 10
M  V30 END BOND
M  V30 END CTAB
M  END
