
     RDKit          3D

  0  0  0  0  0  0  0  0  0  0999 V3000
M  V30 BEGIN CTAB
M  V30 COUNTS 33 35 0 0 0
M  V30 BEGIN ATOM
M  V30 1 C -2.336900 0.605070 1.162440 0
M  V30 2 C -1.143240 0.851380 2.089610 0
M  V30 3 C 0.691090 -2.838560 -1.169340 0
M  V30 4 C 0.644810 -2.325270 1.163030 0
M  V30 5 C 2.113380 2.016740 -1.169880 0
M  V30 6 C 1.307800 0.564710 2.090230 0
M  V30 7 C 1.691810 1.721220 1.162710 0
M  V30 8 C -2.803760 0.820300 -1.170210 0
M  V30 9 C -0.165950 -1.414880 2.089740 0
M  V30 10 Fe 0.000050 0.000130 -0.635160 0 VAL=5
M  V30 11 H -3.086590 1.393330 1.309230 0
M  V30 12 H -2.841550 -0.340820 1.417020 0
M  V30 13 H -1.421450 0.706870 3.148910 0
M  V30 14 H -0.825680 1.890220 1.967100 0
M  V30 15 H 0.337720 -3.368800 1.310270 0
M  V30 16 H 1.716260 -2.288360 1.417740 0
M  V30 17 H 0.097780 -1.583430 3.149170 0
M  V30 18 H -1.224300 -1.659310 1.966660 0
M  V30 19 H 2.749210 1.976460 1.309930 0
M  V30 20 H 1.124740 2.631230 1.416680 0
M  V30 21 H 1.320960 0.878430 3.149380 0
M  V30 22 H 2.048720 -0.229850 1.968870 0
M  V30 23 N -1.870130 0.582720 -0.215110 0
M  V30 24 N -0.000390 0.000300 1.718440 0
M  V30 25 N 1.439860 1.327670 -0.214890 0
M  V30 26 N 0.430410 -1.910590 -0.214720 0
M  V30 27 O 2.925390 2.929140 -0.981350 0
M  V30 28 O -4.000040 1.066920 -0.981890 0
M  V30 29 O 1.075530 -3.997820 -0.980340 0 CHG=-1 VAL=1
M  V30 30 H -2.370720 0.771390 -2.186950 0
M  V30 31 H 0.516700 -2.439850 -2.186320 0
M  V30 32 H 1.855080 1.665860 -2.186630 0
M  V30 33 F 0.000240 0.000270 -2.434940 0
M  V30 END ATOM
M  V30 BEGIN BOND
M  V30 1 1 33 10
M  V30 2 1 30 8
M  V30 3 1 32 5
M  V30 4 1 31 3
M  V30 5 2 8 28
M  V30 6 1 8 23
M  V30 7 2 5 27
M  V30 8 1 5 25
M  V30 9 1 3 29
M  V30 10 2 3 26
M  V30 11 1 10 23
M  V30 12 1 10 25
M  V30 13 1 23 1
M  V30 14 1 25 7
M  V30 15 1 26 4
M  V30 16 1 1 11
M  V30 17 1 1 12
M  V30 18 1 1 2
M  V30 19 1 7 19
M  V30 20 1 7 20
M  V30 21 1 7 6
M  V30 22 1 4 15
M  V30 23 1 4 16
M  V30 24 1 4 9
M  V30 25 1 24 2
M  V30 26 1 24 9
M  V30 27 1 24 6
M  V30 28 1 18 9
M  V30 29 1 14 2
M  V30 30 1 22 6
M  V30 31 1 2 13
M  V30 32 1 9 17
M  V30 33 1 6 21
M  V30 34 9 24 10
M  V30 35 9 26 10
M  V30 END BOND
M  V30 END CTAB
M  END
