
     RDKit          3D

  0  0  0  0  0  0  0  0  0  0999 V3000
M  V30 BEGIN CTAB
M  V30 COUNTS 33 35 0 0 0
M  V30 BEGIN ATOM
M  V30 1 C 1.531710 -0.657820 -2.263950 0
M  V30 2 C 2.587270 -0.807490 -1.167520 0
M  V30 3 C -0.561010 2.951880 -0.445810 0
M  V30 4 C 1.520840 2.295880 0.563860 0
M  V30 5 C -0.556890 -1.095060 2.776040 0
M  V30 6 C 2.583220 -0.600270 1.292530 0
M  V30 7 C 1.528910 -1.628750 1.704950 0
M  V30 8 C -0.545170 -1.868370 -2.327670 0
M  V30 9 C 2.580370 1.428090 -0.116390 0
M  V30 10 Fe -0.223320 0.001530 -0.000560 0 VAL=5
M  V30 11 H 1.738230 -1.345630 -3.090790 0
M  V30 12 H 1.550830 0.365720 -2.664610 0
M  V30 13 H 3.595720 -0.542600 -1.530140 0
M  V30 14 H 2.609950 -1.856040 -0.857430 0
M  V30 15 H 1.722830 3.357290 0.385240 0
M  V30 16 H 1.539340 2.126740 1.650430 0
M  V30 17 H 3.587810 1.614100 0.294520 0
M  V30 18 H 2.600820 1.685700 -1.179120 0
M  V30 19 H 1.732450 -2.000810 2.714570 0
M  V30 20 H 1.554820 -2.486890 1.017880 0
M  V30 21 H 3.592720 -1.044610 1.247930 0
M  V30 22 H 2.601040 0.192710 2.045660 0
M  V30 23 N 0.219530 -0.937000 -1.692010 0
M  V30 24 N 2.216300 0.006280 0.002200 0
M  V30 25 N 0.213910 -0.999420 1.656570 0
M  V30 26 N 0.210510 1.936140 0.033200 0
M  V30 27 O -0.253320 -1.655030 3.833350 0
M  V30 28 O -0.237820 -2.507140 -3.338010 0
M  V30 29 O -0.259870 4.148260 -0.487070 0 CHG=-1 VAL=1
M  V30 30 H -1.520110 -2.010500 -1.829970 0
M  V30 31 H -1.534740 2.589430 -0.818610 0
M  V30 32 H -1.533350 -0.596890 2.647280 0
M  V30 33 Br -2.744600 -0.003620 -0.005150 0
M  V30 END ATOM
M  V30 BEGIN BOND
M  V30 1 2 28 8
M  V30 2 1 11 1
M  V30 3 1 12 1
M  V30 4 1 8 30
M  V30 5 1 8 23
M  V30 6 1 1 23
M  V30 7 1 1 2
M  V30 8 1 23 10
M  V30 9 1 13 2
M  V30 10 1 18 9
M  V30 11 1 2 14
M  V30 12 1 2 24
M  V30 13 1 31 3
M  V30 14 1 29 3
M  V30 15 2 3 26
M  V30 16 1 9 24
M  V30 17 1 9 17
M  V30 18 1 9 4
M  V30 19 1 33 10
M  V30 20 1 10 25
M  V30 21 1 24 6
M  V30 22 1 26 4
M  V30 23 1 15 4
M  V30 24 1 4 16
M  V30 25 1 20 7
M  V30 26 1 21 6
M  V30 27 1 6 7
M  V30 28 1 6 22
M  V30 29 1 25 7
M  V30 30 1 25 5
M  V30 31 1 7 19
M  V30 32 1 32 5
M  V30 33 2 5 27
M  V30 34 9 24 10
M  V30 35 9 26 10
M  V30 END BOND
M  V30 END CTAB
M  END
