
     RDKit          3D

  0  0  0  0  0  0  0  0  0  0999 V3000
M  V30 BEGIN CTAB
M  V30 COUNTS 50 52 0 0 0
M  V30 BEGIN ATOM
M  V30 1 C -1.239060 -1.216880 -2.628280 0
M  V30 2 C -3.593890 2.422700 -0.511140 0
M  V30 3 C 4.979780 1.396780 1.265280 0
M  V30 4 C -0.578270 -2.484790 -2.086890 0
M  V30 5 C 2.855280 0.444720 0.531730 0
M  V30 6 C -2.784750 -1.768810 3.886690 0
M  V30 7 C 2.804750 -0.941150 -1.460050 0
M  V30 8 C -1.343470 -1.204810 1.990910 0
M  V30 9 C 0.996910 -3.025230 -0.242400 0
M  V30 10 C -0.016250 -2.935060 0.910440 0
M  V30 11 C -2.397670 0.641860 -1.698890 0
M  V30 12 C 1.753140 -1.762790 -2.221370 0
M  V30 13 Fe 0.116640 -0.122010 -0.187910 0 VAL=5
M  V30 14 H -2.222040 -1.465170 -3.049340 0
M  V30 15 H -0.660580 -0.800790 -3.469920 0
M  V30 16 H -0.355380 -3.209940 -2.890560 0
M  V30 17 H -1.271090 -2.956790 -1.386620 0
M  V30 18 H 4.496580 0.741230 -0.653360 0
M  V30 19 H 3.367130 -0.355590 -2.212840 0
M  V30 20 H 3.546660 -1.606100 -0.987340 0
M  V30 21 H 2.211640 -2.652700 -2.689800 0
M  V30 22 H 1.336040 -1.148400 -3.022930 0
M  V30 23 H 0.449290 -3.444290 1.776500 0
M  V30 24 H -0.924610 -3.514580 0.671880 0
M  V30 25 H 1.099840 -4.070400 -0.586000 0
M  V30 26 H -1.205470 -2.904270 3.120900 0
M  V30 27 H 1.964830 -2.693910 0.137780 0
M  V30 28 H -2.438320 0.865840 0.339290 0
M  V30 29 N -2.887060 1.159720 -0.526450 0
M  V30 30 N -1.363130 -0.277820 -1.527870 0
M  V30 31 N 0.636760 -2.124430 -1.343890 0
M  V30 32 N 4.243390 0.577410 0.313960 0
M  V30 33 N -1.866710 -2.190710 2.841180 0
M  V30 34 N -0.329900 -1.547280 1.166490 0
M  V30 35 N 2.127310 -0.127760 -0.474760 0
M  V30 36 O -1.842870 -0.062150 1.993600 0
M  V30 37 O -2.873870 0.923550 -2.809620 0
M  V30 38 O 2.364280 0.800570 1.606590 0 CHG=-1 VAL=1
M  V30 39 H -2.299310 -1.179630 4.679940 0
M  V30 40 H -3.252640 -2.653610 4.333990 0
M  V30 41 H -3.556380 -1.141400 3.437830 0
M  V30 42 H 6.052140 1.319990 1.049970 0
M  V30 43 H 4.787690 1.022470 2.272600 0
M  V30 44 H 4.680960 2.455390 1.247160 0
M  V30 45 H -2.916980 3.267670 -0.315220 0
M  V30 46 H -4.370330 2.412210 0.263820 0
M  V30 47 H -4.064600 2.563360 -1.486670 0
M  V30 48 N -0.035170 1.842420 0.124650 0
M  V30 49 C -0.034630 3.021690 0.237300 0
M  V30 50 S -0.047350 4.644740 0.382940 0
M  V30 END ATOM
M  V30 BEGIN BOND
M  V30 1 1 15 1
M  V30 2 1 14 1
M  V30 3 1 22 12
M  V30 4 1 16 4
M  V30 5 2 37 11
M  V30 6 1 21 12
M  V30 7 1 1 4
M  V30 8 1 1 30
M  V30 9 1 12 7
M  V30 10 1 12 31
M  V30 11 1 19 7
M  V30 12 1 4 17
M  V30 13 1 4 31
M  V30 14 1 11 30
M  V30 15 1 11 29
M  V30 16 1 30 13
M  V30 17 1 47 2
M  V30 18 1 7 20
M  V30 19 1 7 35
M  V30 20 1 31 9
M  V30 21 1 18 32
M  V30 22 1 25 9
M  V30 23 1 29 2
M  V30 24 1 29 28
M  V30 25 1 2 45
M  V30 26 1 2 46
M  V30 27 2 35 5
M  V30 28 1 9 27
M  V30 29 1 9 10
M  V30 30 1 13 48
M  V30 31 1 13 34
M  V30 32 2 48 49
M  V30 33 2 49 50
M  V30 34 1 32 5
M  V30 35 1 32 3
M  V30 36 1 5 38
M  V30 37 1 24 10
M  V30 38 1 10 34
M  V30 39 1 10 23
M  V30 40 1 42 3
M  V30 41 1 34 8
M  V30 42 1 44 3
M  V30 43 1 3 43
M  V30 44 2 8 36
M  V30 45 1 8 33
M  V30 46 1 33 26
M  V30 47 1 33 6
M  V30 48 1 41 6
M  V30 49 1 6 40
M  V30 50 1 6 39
M  V30 51 9 31 13
M  V30 52 9 35 13
M  V30 END BOND
M  V30 END CTAB
M  END
