
     RDKit          3D

  0  0  0  0  0  0  0  0  0  0999 V3000
M  V30 BEGIN CTAB
M  V30 COUNTS 48 50 0 0 0
M  V30 BEGIN ATOM
M  V30 1 C 2.400260 -0.127700 1.297240 0
M  V30 2 C 4.392560 -1.891630 -2.067140 0
M  V30 3 C 1.301310 4.195790 0.742620 0
M  V30 4 C 1.868940 -1.365600 2.051070 0
M  V30 5 C -0.010320 2.316580 1.642530 0
M  V30 6 C -4.647600 -0.539640 -0.853450 0
M  V30 7 C -1.275800 0.416460 2.354490 0
M  V30 8 C -2.546210 -1.648280 -0.248280 0
M  V30 9 C -0.263450 -2.613130 1.704880 0
M  V30 10 C -0.453050 -2.727780 0.179240 0
M  V30 11 C 2.413180 -0.895080 -1.037470 0
M  V30 12 C -0.235630 -0.499650 3.029170 0
M  V30 13 Fe -0.097040 0.063090 -0.267520 0 VAL=5
M  V30 14 H 3.500970 -0.123030 1.339910 0
M  V30 15 H 2.067080 0.780300 1.807960 0
M  V30 16 H 2.287610 -1.403570 3.074580 0
M  V30 17 H 2.219040 -2.256250 1.517280 0
M  V30 18 H 0.031780 2.876040 -0.332630 0
M  V30 19 H -1.689560 1.094490 3.111940 0
M  V30 20 H -2.092140 -0.187780 1.947020 0
M  V30 21 H -0.712310 -1.084640 3.835900 0
M  V30 22 H 0.515920 0.149220 3.485410 0
M  V30 23 H -1.003710 -3.647900 -0.049540 0
M  V30 24 H 0.518040 -2.767270 -0.325450 0
M  V30 25 H 0.276810 -3.493950 2.096170 0
M  V30 26 H -2.683190 0.068060 -1.370400 0
M  V30 27 H -1.261100 -2.609050 2.153650 0
M  V30 28 H 4.337280 -0.643780 -0.392760 0
M  V30 29 N 3.754170 -1.291550 -0.906840 0
M  V30 30 N 1.868700 -0.116910 -0.057330 0
M  V30 31 N 0.414790 -1.369690 2.055890 0
M  V30 32 N 0.301450 3.164710 0.602060 0
M  V30 33 N -3.207100 -0.550700 -0.760410 0
M  V30 34 N -1.169210 -1.562020 -0.322620 0
M  V30 35 N -0.686710 1.173930 1.255350 0
M  V30 36 O -3.165720 -2.596570 0.260970 0
M  V30 37 O 1.750170 -1.277510 -2.013090 0
M  V30 38 O 0.302050 2.583000 2.817220 0 CHG=-1 VAL=1
M  V30 39 H -5.030550 -1.108100 -1.717140 0
M  V30 40 H -4.995850 0.495600 -0.937020 0
M  V30 41 H -5.066170 -0.990210 0.049860 0
M  V30 42 H 2.291370 3.873490 0.380400 0
M  V30 43 H 1.383230 4.444780 1.802710 0
M  V30 44 H 1.008810 5.093540 0.184150 0
M  V30 45 H 5.361290 -2.309100 -1.768700 0
M  V30 46 H 4.547080 -1.182430 -2.895050 0
M  V30 47 H 3.753630 -2.693950 -2.439930 0
M  V30 48 Br -0.706630 1.498780 -2.341590 0
M  V30 END ATOM
M  V30 BEGIN BOND
M  V30 1 1 46 2
M  V30 2 1 47 2
M  V30 3 1 48 13
M  V30 4 1 2 45
M  V30 5 1 2 29
M  V30 6 2 37 11
M  V30 7 1 39 6
M  V30 8 1 26 33
M  V30 9 1 11 29
M  V30 10 1 11 30
M  V30 11 1 40 6
M  V30 12 1 29 28
M  V30 13 1 6 33
M  V30 14 1 6 41
M  V30 15 1 33 8
M  V30 16 1 18 32
M  V30 17 1 24 10
M  V30 18 1 34 13
M  V30 19 1 34 8
M  V30 20 1 34 10
M  V30 21 1 13 30
M  V30 22 2 8 36
M  V30 23 1 30 1
M  V30 24 1 23 10
M  V30 25 1 10 9
M  V30 26 1 44 3
M  V30 27 1 42 3
M  V30 28 1 32 3
M  V30 29 1 32 5
M  V30 30 1 3 43
M  V30 31 2 35 5
M  V30 32 1 35 7
M  V30 33 1 1 14
M  V30 34 1 1 15
M  V30 35 1 1 4
M  V30 36 1 17 4
M  V30 37 1 5 38
M  V30 38 1 9 31
M  V30 39 1 9 25
M  V30 40 1 9 27
M  V30 41 1 20 7
M  V30 42 1 4 31
M  V30 43 1 4 16
M  V30 44 1 31 12
M  V30 45 1 7 12
M  V30 46 1 7 19
M  V30 47 1 12 22
M  V30 48 1 12 21
M  V30 49 9 31 13
M  V30 50 9 35 13
M  V30 END BOND
M  V30 END CTAB
M  END
