
     RDKit          3D

  0  0  0  0  0  0  0  0  0  0999 V3000
M  V30 BEGIN CTAB
M  V30 COUNTS 60 67 0 0 0
M  V30 BEGIN ATOM
M  V30 1 Fe 0.374370 0.173900 0.656220 0 CHG=2 VAL=5
M  V30 2 N -1.494700 -0.355800 -0.049700 0
M  V30 3 N -2.884000 -0.894300 -1.702600 0
M  V30 4 N 0.746000 -0.001700 -1.614600 0
M  V30 5 N 1.028500 -1.898000 0.340100 0
M  V30 6 N 2.517000 0.546600 0.382500 0
M  V30 7 N -0.028200 2.161300 -0.035500 0
M  V30 8 C -2.781500 -0.402500 0.483300 0
M  V30 9 C -3.248300 -0.167700 1.779900 0
M  V30 10 C -4.617200 -0.297200 1.992800 0
M  V30 11 C -5.498800 -0.647400 0.947700 0
M  V30 12 C -5.043900 -0.879500 -0.348100 0
M  V30 13 C -3.670000 -0.747200 -0.553500 0
M  V30 14 C -3.408900 -1.277100 -3.012400 0
M  V30 15 C -1.602400 -0.647900 -1.344900 0
M  V30 16 C -0.393600 -0.729200 -2.236000 0
M  V30 17 C 0.754800 -2.946900 1.129700 0
M  V30 18 C 1.190000 -4.234700 0.818600 0
M  V30 19 C 1.923300 -4.429000 -0.352000 0
M  V30 20 C 2.200800 -3.333000 -1.177500 0
M  V30 21 C 1.737000 -2.081000 -0.793200 0
M  V30 22 C 2.016400 -0.792000 -1.557600 0
M  V30 23 C 3.028600 0.004200 -0.742100 0
M  V30 24 C 4.370600 0.130800 -1.077300 0
M  V30 25 C 5.209800 0.841800 -0.211500 0
M  V30 26 C 4.677300 1.401000 0.950300 0
M  V30 27 C 3.318300 1.232000 1.211800 0
M  V30 28 C 0.909500 1.376700 -2.150300 0
M  V30 29 C 0.134500 2.407200 -1.351900 0
M  V30 30 C -0.321300 3.589200 -1.929300 0
M  V30 31 C -0.947600 4.542000 -1.122100 0
M  V30 32 C -1.107800 4.282000 0.239800 0
M  V30 33 C -0.639500 3.073000 0.743100 0
M  V30 34 H 2.414000 -1.012600 -2.555500 0
M  V30 35 H 4.754100 -0.311500 -1.991200 0
M  V30 36 H 6.263400 0.957900 -0.446200 0
M  V30 37 H 5.297400 1.958500 1.643700 0
M  V30 38 H 2.765800 -3.452600 -2.096500 0
M  V30 39 H 2.274500 -5.419600 -0.624300 0
M  V30 40 H 0.956400 -5.060600 1.481700 0
M  V30 41 H 0.175000 -2.734900 2.022100 0
M  V30 42 H -0.118500 -1.780700 -2.374100 0
M  V30 43 H -0.607800 -0.328300 -3.232700 0
M  V30 44 H 0.629500 1.421100 -3.208800 0
M  V30 45 H 1.969700 1.641400 -2.099300 0
M  V30 46 H -0.184200 3.765000 -2.991800 0
M  V30 47 H -1.308000 5.471100 -1.552800 0
M  V30 48 H -2.606000 -1.297500 -3.749600 0
M  V30 49 H -4.166200 -0.554500 -3.327800 0
M  V30 50 H -3.860700 -2.271000 -2.951500 0
M  V30 51 H -5.725200 -1.148600 -1.148300 0
M  V30 52 H -6.559100 -0.738600 1.159600 0
M  V30 53 H -5.020500 -0.126800 2.985900 0
M  V30 54 H -2.566100 0.100700 2.579300 0
M  V30 55 H 2.846600 1.645900 2.096800 0
M  V30 56 H -0.750900 2.802000 1.787300 0
M  V30 57 H -1.591400 4.994100 0.899400 0
M  V30 58 N 0.221200 0.304400 2.500400 0
M  V30 59 N 0.321900 0.208100 3.705600 0 CHG=1 VAL=4
M  V30 60 N 0.407200 0.122700 4.846400 0 CHG=-1 VAL=2
M  V30 END ATOM
M  V30 BEGIN BOND
M  V30 1 1 48 14
M  V30 2 1 49 14
M  V30 3 1 43 16
M  V30 4 1 44 28
M  V30 5 1 14 50
M  V30 6 1 14 3
M  V30 7 1 46 30
M  V30 8 1 34 22
M  V30 9 1 42 16
M  V30 10 1 16 4
M  V30 11 1 16 15
M  V30 12 1 28 45
M  V30 13 1 28 4
M  V30 14 1 28 29
M  V30 15 1 38 20
M  V30 16 1 35 24
M  V30 17 1 30 29
M  V30 18 2 30 31
M  V30 19 1 3 15
M  V30 20 1 3 13
M  V30 21 1 4 22
M  V30 22 1 22 21
M  V30 23 1 22 23
M  V30 24 1 47 31
M  V30 25 2 29 7
M  V30 26 2 15 2
M  V30 27 1 20 21
M  V30 28 2 20 19
M  V30 29 1 51 12
M  V30 30 1 31 32
M  V30 31 1 24 23
M  V30 32 2 24 25
M  V30 33 2 21 5
M  V30 34 2 23 6
M  V30 35 1 39 19
M  V30 36 1 13 12
M  V30 37 2 13 8
M  V30 38 1 36 25
M  V30 39 1 19 18
M  V30 40 2 12 11
M  V30 41 1 25 26
M  V30 42 1 2 8
M  V30 43 1 7 33
M  V30 44 2 32 33
M  V30 45 1 32 57
M  V30 46 1 5 17
M  V30 47 1 6 27
M  V30 48 1 8 9
M  V30 49 1 33 56
M  V30 50 2 18 17
M  V30 51 1 18 40
M  V30 52 1 11 52
M  V30 53 1 11 10
M  V30 54 2 26 27
M  V30 55 1 26 37
M  V30 56 1 17 41
M  V30 57 1 27 55
M  V30 58 2 9 10
M  V30 59 1 9 54
M  V30 60 1 10 53
M  V30 61 2 58 59
M  V30 62 2 59 60
M  V30 63 1 1 58
M  V30 64 9 2 1
M  V30 65 9 5 1
M  V30 66 9 6 1
M  V30 67 9 7 1
M  V30 END BOND
M  V30 END CTAB
M  END
