
     RDKit          3D

  0  0  0  0  0  0  0  0  0  0999 V3000
M  V30 BEGIN CTAB
M  V30 COUNTS 59 67 0 0 0
M  V30 BEGIN ATOM
M  V30 1 Fe -0.368330 0.169050 -0.884220 0 CHG=2 VAL=6
M  V30 2 N 1.469330 -0.346510 -0.115850 0
M  V30 3 N 2.845000 -0.851590 1.555470 0
M  V30 4 N -0.793730 0.000850 1.411970 0
M  V30 5 N -1.012290 -1.905790 -0.551150 0
M  V30 6 N -2.512330 0.516880 -0.646270 0
M  V30 7 N -0.017850 2.149480 -0.181860 0
M  V30 8 C 2.760190 -0.381680 -0.636540 0
M  V30 9 C 3.228740 -0.152330 -1.933140 0
M  V30 10 C 4.601400 -0.264590 -2.132830 0
M  V30 11 C 5.479150 -0.592790 -1.076910 0
M  V30 12 C 5.018900 -0.819900 0.218480 0
M  V30 13 C 3.641780 -0.704950 0.412410 0
M  V30 14 C 3.360740 -1.214030 2.874540 0
M  V30 15 C 1.563890 -0.625030 1.183010 0
M  V30 16 C 0.341480 -0.711720 2.056630 0
M  V30 17 C -0.699950 -2.957040 -1.323040 0
M  V30 18 C -1.118420 -4.249540 -1.008550 0
M  V30 19 C -1.875400 -4.445130 0.146790 0
M  V30 20 C -2.191190 -3.346250 0.954580 0
M  V30 21 C -1.741880 -2.089410 0.568740 0
M  V30 22 C -2.054410 -0.799510 1.319830 0
M  V30 23 C -3.048930 -0.013860 0.471920 0
M  V30 24 C -4.397920 0.120090 0.774420 0
M  V30 25 C -5.214340 0.825750 -0.117510 0
M  V30 26 C -4.654140 1.372880 -1.272140 0
M  V30 27 C -3.290080 1.197300 -1.501520 0
M  V30 28 C -0.978080 1.382830 1.929520 0
M  V30 29 C -0.208720 2.415050 1.125920 0
M  V30 30 C 0.214690 3.617460 1.685140 0
M  V30 31 C 0.835680 4.564710 0.866600 0
M  V30 32 C 1.023180 4.281250 -0.487240 0
M  V30 33 C 0.587110 3.053480 -0.974500 0
M  V30 34 H -2.481950 -1.021980 2.305050 0
M  V30 35 H -4.804000 -0.311660 1.683630 0
M  V30 36 H -6.272530 0.947510 0.092180 0
M  V30 37 H -5.257040 1.926330 -1.983780 0
M  V30 38 H -2.773370 -3.467610 1.862600 0
M  V30 39 H -2.214530 -5.439160 0.421500 0
M  V30 40 H -0.853530 -5.077970 -1.656470 0
M  V30 41 H -0.101320 -2.742150 -2.202360 0
M  V30 42 H 0.074370 -1.764830 2.198260 0
M  V30 43 H 0.536890 -0.302310 3.053780 0
M  V30 44 H -0.707400 1.443810 2.989680 0
M  V30 45 H -2.041010 1.634740 1.867650 0
M  V30 46 H 0.057250 3.813340 2.741300 0
M  V30 47 H 1.171220 5.509290 1.283580 0
M  V30 48 H 2.550720 -1.233180 3.604030 0
M  V30 49 H 4.107970 -0.480440 3.188430 0
M  V30 50 H 3.822730 -2.204150 2.829880 0
M  V30 51 H 5.698750 -1.071970 1.025420 0
M  V30 52 H 6.542350 -0.670840 -1.279720 0
M  V30 53 H 5.011420 -0.097800 -3.123730 0
M  V30 54 H 2.539650 0.098070 -2.733280 0
M  V30 55 H -2.792180 1.599730 -2.377550 0
M  V30 56 H 0.715030 2.754650 -2.009590 0
M  V30 57 H 1.503510 4.989980 -1.152830 0
M  V30 58 O -0.119820 0.375760 -2.648930 0
M  V30 59 H -0.445620 0.045830 -3.500370 0
M  V30 END ATOM
M  V30 BEGIN BOND
M  V30 1 1 59 58
M  V30 2 1 53 10
M  V30 3 1 54 9
M  V30 4 1 58 1
M  V30 5 1 55 27
M  V30 6 1 41 17
M  V30 7 1 10 9
M  V30 8 2 10 11
M  V30 9 1 56 33
M  V30 10 1 37 26
M  V30 11 2 9 8
M  V30 12 1 40 18
M  V30 13 1 27 26
M  V30 14 2 27 6
M  V30 15 1 17 18
M  V30 16 2 17 5
M  V30 17 1 52 11
M  V30 18 2 26 25
M  V30 19 1 57 32
M  V30 20 1 11 12
M  V30 21 2 18 19
M  V30 22 1 33 32
M  V30 23 2 33 7
M  V30 24 1 6 23
M  V30 25 1 8 2
M  V30 26 1 8 13
M  V30 27 1 5 21
M  V30 28 2 32 31
M  V30 29 1 7 29
M  V30 30 1 25 36
M  V30 31 1 25 24
M  V30 32 2 2 15
M  V30 33 1 19 39
M  V30 34 1 19 20
M  V30 35 2 12 13
M  V30 36 1 12 51
M  V30 37 1 13 3
M  V30 38 2 23 24
M  V30 39 1 23 22
M  V30 40 2 21 20
M  V30 41 1 21 22
M  V30 42 1 24 35
M  V30 43 1 31 47
M  V30 44 1 31 30
M  V30 45 1 20 38
M  V30 46 2 29 30
M  V30 47 1 29 28
M  V30 48 1 15 3
M  V30 49 1 15 16
M  V30 50 1 22 4
M  V30 51 1 22 34
M  V30 52 1 4 28
M  V30 53 1 4 16
M  V30 54 1 3 14
M  V30 55 1 30 46
M  V30 56 1 45 28
M  V30 57 1 28 44
M  V30 58 1 16 42
M  V30 59 1 16 43
M  V30 60 1 50 14
M  V30 61 1 14 49
M  V30 62 1 14 48
M  V30 63 9 2 1
M  V30 64 9 4 1
M  V30 65 9 5 1
M  V30 66 9 6 1
M  V30 67 9 7 1
M  V30 END BOND
M  V30 END CTAB
M  END
