
     RDKit          3D

  0  0  0  0  0  0  0  0  0  0999 V3000
M  V30 BEGIN CTAB
M  V30 COUNTS 59 67 0 0 0
M  V30 BEGIN ATOM
M  V30 1 Fe -0.368470 0.169070 -0.884260 0 CHG=2 VAL=6
M  V30 2 N 1.469040 -0.347190 -0.115990 0
M  V30 3 N 2.844660 -0.852350 1.555350 0
M  V30 4 N -0.793800 0.001070 1.411940 0
M  V30 5 N -1.013230 -1.905550 -0.551050 0
M  V30 6 N -2.512290 0.517690 -0.646310 0
M  V30 7 N -0.017110 2.149380 -0.181870 0
M  V30 8 C 2.759890 -0.382600 -0.636700 0
M  V30 9 C 3.228480 -0.153360 -1.933300 0
M  V30 10 C 4.601110 -0.265850 -2.133000 0
M  V30 11 C 5.478820 -0.594160 -1.077090 0
M  V30 12 C 5.018540 -0.821150 0.218310 0
M  V30 13 C 3.641440 -0.705960 0.412260 0
M  V30 14 C 3.360360 -1.214830 2.874430 0
M  V30 15 C 1.563590 -0.625610 1.182900 0
M  V30 16 C 0.341160 -0.711980 2.056520 0
M  V30 17 C -0.701390 -2.956970 -1.322910 0
M  V30 18 C -1.120470 -4.249250 -1.008400 0
M  V30 19 C -1.877560 -4.444460 0.146950 0
M  V30 20 C -2.192820 -3.345410 0.954700 0
M  V30 21 C -1.742920 -2.088800 0.568830 0
M  V30 22 C -2.054850 -0.798730 1.319890 0
M  V30 23 C -3.049060 -0.012660 0.471980 0
M  V30 24 C -4.397960 0.122020 0.774570 0
M  V30 25 C -5.214080 0.828030 -0.117360 0
M  V30 26 C -4.653690 1.374730 -1.272090 0
M  V30 27 C -3.289750 1.198420 -1.501570 0
M  V30 28 C -0.977480 1.383140 1.929480 0
M  V30 29 C -0.207320 2.414860 1.126030 0
M  V30 30 C 0.217440 3.616710 1.685380 0
M  V30 31 C 0.839110 4.563540 0.866850 0
M  V30 32 C 1.025870 4.280210 -0.487100 0
M  V30 33 C 0.588470 3.052960 -0.974510 0
M  V30 34 H -2.482440 -1.020970 2.305130 0
M  V30 35 H -4.804180 -0.309420 1.683870 0
M  V30 36 H -6.272190 0.950360 0.092410 0
M  V30 37 H -5.256360 1.928420 -1.983740 0
M  V30 38 H -2.775060 -3.466470 1.862720 0
M  V30 39 H -2.217160 -5.438320 0.421670 0
M  V30 40 H -0.855970 -5.077830 -1.656290 0
M  V30 41 H -0.102640 -2.742400 -2.202230 0
M  V30 42 H 0.073680 -1.765020 2.198000 0
M  V30 43 H 0.536690 -0.302770 3.053730 0
M  V30 44 H -0.707070 1.443940 2.989730 0
M  V30 45 H -2.040240 1.635660 1.867290 0
M  V30 46 H 0.060510 3.812510 2.741640 0
M  V30 47 H 1.175710 5.507690 1.283950 0
M  V30 48 H 2.550490 -1.232990 3.604100 0
M  V30 49 H 4.108290 -0.481770 3.187890 0
M  V30 50 H 3.821490 -2.205360 2.830020 0
M  V30 51 H 5.698360 -1.073310 1.025260 0
M  V30 52 H 6.542000 -0.672410 -1.279900 0
M  V30 53 H 5.011150 -0.099150 -3.123910 0
M  V30 54 H 2.539430 0.097180 -2.733430 0
M  V30 55 H -2.791690 1.600450 -2.377690 0
M  V30 56 H 0.715780 2.754230 -2.009700 0
M  V30 57 H 1.506650 4.988640 -1.152690 0
M  V30 58 O -0.120030 0.376180 -2.648940 0
M  V30 59 H -0.445250 0.045560 -3.500330 0
M  V30 END ATOM
M  V30 BEGIN BOND
M  V30 1 1 59 58
M  V30 2 1 53 10
M  V30 3 1 54 9
M  V30 4 1 58 1
M  V30 5 1 55 27
M  V30 6 1 41 17
M  V30 7 1 10 9
M  V30 8 2 10 11
M  V30 9 1 56 33
M  V30 10 1 37 26
M  V30 11 2 9 8
M  V30 12 1 40 18
M  V30 13 1 27 26
M  V30 14 2 27 6
M  V30 15 1 17 18
M  V30 16 2 17 5
M  V30 17 1 52 11
M  V30 18 2 26 25
M  V30 19 1 57 32
M  V30 20 1 11 12
M  V30 21 2 18 19
M  V30 22 1 33 32
M  V30 23 2 33 7
M  V30 24 1 6 23
M  V30 25 1 8 2
M  V30 26 1 8 13
M  V30 27 1 5 21
M  V30 28 2 32 31
M  V30 29 1 7 29
M  V30 30 1 25 36
M  V30 31 1 25 24
M  V30 32 2 2 15
M  V30 33 1 19 39
M  V30 34 1 19 20
M  V30 35 2 12 13
M  V30 36 1 12 51
M  V30 37 1 13 3
M  V30 38 2 23 24
M  V30 39 1 23 22
M  V30 40 2 21 20
M  V30 41 1 21 22
M  V30 42 1 24 35
M  V30 43 1 31 47
M  V30 44 1 31 30
M  V30 45 1 20 38
M  V30 46 2 29 30
M  V30 47 1 29 28
M  V30 48 1 15 3
M  V30 49 1 15 16
M  V30 50 1 22 4
M  V30 51 1 22 34
M  V30 52 1 4 28
M  V30 53 1 4 16
M  V30 54 1 3 14
M  V30 55 1 30 46
M  V30 56 1 45 28
M  V30 57 1 28 44
M  V30 58 1 16 42
M  V30 59 1 16 43
M  V30 60 1 50 14
M  V30 61 1 14 49
M  V30 62 1 14 48
M  V30 63 9 2 1
M  V30 64 9 4 1
M  V30 65 9 5 1
M  V30 66 9 6 1
M  V30 67 9 7 1
M  V30 END BOND
M  V30 END CTAB
M  END
