
     RDKit          3D

  0  0  0  0  0  0  0  0  0  0999 V3000
M  V30 BEGIN CTAB
M  V30 COUNTS 65 74 0 0 0
M  V30 BEGIN ATOM
M  V30 1 Fe -0.383090 -0.007190 -0.837750 0 CHG=2 VAL=6
M  V30 2 N -2.027120 -1.435310 -0.716570 0
M  V30 3 N -2.075940 1.362920 -0.716310 0
M  V30 4 N 0.730100 1.497220 -0.001420 0
M  V30 5 N 0.782690 -1.471340 -0.001640 0
M  V30 6 N -1.059460 -0.019340 1.458840 0
M  V30 7 N 1.401620 2.807460 1.660430 0
M  V30 8 N 1.500480 -2.756700 1.660300 0
M  V30 9 C -2.229990 -2.443700 -1.576730 0
M  V30 10 C -3.281180 -3.345350 -1.409870 0
M  V30 11 C -4.129630 -3.189710 -0.313830 0
M  V30 12 C -3.909020 -2.136960 0.582940 0
M  V30 13 C -2.846120 -1.275400 0.343140 0
M  V30 14 C -2.532760 -0.044800 1.188700 0
M  V30 15 H -3.123470 -0.055200 2.112860 0
M  V30 16 C -2.888620 1.174510 0.343570 0
M  V30 17 C -3.980610 1.998750 0.583920 0
M  V30 18 C -4.237650 3.043600 -0.312370 0
M  V30 19 C -3.395350 3.228830 -1.408540 0
M  V30 20 C -2.313720 2.364040 -1.576030 0
M  V30 21 C -0.568930 1.234320 2.092800 0
M  V30 22 C 0.538060 1.840560 1.269540 0
M  V30 23 C 1.500420 3.469470 2.959870 0
M  V30 24 C 2.213490 3.110620 0.558890 0
M  V30 25 C 3.261030 4.017910 0.394380 0
M  V30 26 C 3.854660 4.049450 -0.866100 0
M  V30 27 C 3.421840 3.211760 -1.917230 0
M  V30 28 C 2.377760 2.307870 -1.747390 0
M  V30 29 C 1.778940 2.273160 -0.485320 0
M  V30 30 C 0.602870 -1.821380 1.269300 0
M  V30 31 C -0.525730 -1.255620 2.092040 0
M  V30 32 C 1.622770 -3.414960 2.959650 0
M  V30 33 C 2.322920 -3.030480 0.558900 0
M  V30 34 C 3.402350 -3.899620 0.394560 0
M  V30 35 C 3.996970 -3.909820 -0.865810 0
M  V30 36 C 3.534590 -3.088140 -1.916980 0
M  V30 37 C 2.458730 -2.222280 -1.747330 0
M  V30 38 C 1.858790 -2.209120 -0.485370 0
M  V30 39 H 0.880010 -3.020750 3.653810 0
M  V30 40 H 2.622340 -3.239600 3.366270 0
M  V30 41 H 1.464100 -4.490590 2.843050 0
M  V30 42 H 4.032790 -3.136730 -2.879840 0
M  V30 43 H 2.085130 -1.584720 -2.542190 0
M  V30 44 H -1.327410 -1.999670 2.161200 0
M  V30 45 H -0.201890 -1.055060 3.118910 0
M  V30 46 H -1.396280 1.949510 2.164090 0
M  V30 47 H -0.236750 1.043970 3.118950 0
M  V30 48 H 2.505840 3.330420 3.366090 0
M  V30 49 H 0.772740 3.048340 3.654200 0
M  V30 50 H 1.302740 4.538660 2.843630 0
M  V30 51 H 3.599020 4.665610 1.196330 0
M  V30 52 H 4.673180 4.739120 -1.045050 0
M  V30 53 H 3.917810 3.278210 -2.880170 0
M  V30 54 H 2.027050 1.657310 -2.542150 0
M  V30 55 H -1.619880 2.455700 -2.405690 0
M  V30 56 H -3.567520 4.025280 -2.124230 0
M  V30 57 H -5.086000 3.701850 -0.152490 0
M  V30 58 H -4.619100 1.830220 1.445340 0
M  V30 59 H -1.533120 -2.511010 -2.406190 0
M  V30 60 H -3.425600 -4.146990 -2.125900 0
M  V30 61 H -4.954780 -3.876920 -0.154400 0
M  V30 62 H -4.553160 -1.990910 1.444260 0
M  V30 63 H 3.763200 -4.534820 1.196560 0
M  V30 64 H 4.839710 -4.569700 -1.044630 0
M  V30 65 F 0.101300 0.001780 -2.531810 0
M  V30 END ATOM
M  V30 BEGIN BOND
M  V30 1 1 53 27
M  V30 2 1 42 36
M  V30 3 1 43 37
M  V30 4 1 54 28
M  V30 5 1 65 1
M  V30 6 1 59 9
M  V30 7 1 55 20
M  V30 8 1 60 10
M  V30 9 1 56 19
M  V30 10 1 27 28
M  V30 11 2 27 26
M  V30 12 1 36 37
M  V30 13 2 36 35
M  V30 14 2 28 29
M  V30 15 2 37 38
M  V30 16 1 9 10
M  V30 17 2 9 2
M  V30 18 1 20 19
M  V30 19 2 20 3
M  V30 20 2 10 11
M  V30 21 2 19 18
M  V30 22 1 52 26
M  V30 23 1 64 35
M  V30 24 1 26 25
M  V30 25 1 35 34
M  V30 26 1 2 13
M  V30 27 1 3 16
M  V30 28 1 38 5
M  V30 29 1 38 33
M  V30 30 1 29 4
M  V30 31 1 29 24
M  V30 32 1 11 61
M  V30 33 1 11 12
M  V30 34 1 18 57
M  V30 35 1 18 17
M  V30 36 2 5 30
M  V30 37 2 4 22
M  V30 38 2 13 12
M  V30 39 1 13 14
M  V30 40 2 16 17
M  V30 41 1 16 14
M  V30 42 2 25 24
M  V30 43 1 25 51
M  V30 44 2 34 33
M  V30 45 1 34 63
M  V30 46 1 24 7
M  V30 47 1 33 8
M  V30 48 1 12 62
M  V30 49 1 17 58
M  V30 50 1 14 6
M  V30 51 1 14 15
M  V30 52 1 30 8
M  V30 53 1 30 31
M  V30 54 1 22 7
M  V30 55 1 22 21
M  V30 56 1 6 31
M  V30 57 1 6 21
M  V30 58 1 8 32
M  V30 59 1 7 23
M  V30 60 1 31 44
M  V30 61 1 31 45
M  V30 62 1 21 46
M  V30 63 1 21 47
M  V30 64 1 41 32
M  V30 65 1 50 23
M  V30 66 1 32 40
M  V30 67 1 32 39
M  V30 68 1 23 48
M  V30 69 1 23 49
M  V30 70 9 2 1
M  V30 71 9 3 1
M  V30 72 9 4 1
M  V30 73 9 5 1
M  V30 74 9 6 1
M  V30 END BOND
M  V30 END CTAB
M  END
