
     RDKit          3D

  0  0  0  0  0  0  0  0  0  0999 V3000
M  V30 BEGIN CTAB
M  V30 COUNTS 48 51 0 0 0
M  V30 BEGIN ATOM
M  V30 1 H 0.519400 1.852100 3.098800 0
M  V30 2 H 2.824700 2.475900 1.318600 0
M  V30 3 H 1.834600 0.752600 2.755800 0
M  V30 4 C 0.839500 1.050600 2.426700 0
M  V30 5 H 3.233400 0.039500 1.507700 0
M  V30 6 H -0.037900 -0.654500 3.450600 0
M  V30 7 C 2.330500 1.803800 0.606100 0
M  V30 8 H 1.872800 -1.497500 2.408500 0
M  V30 9 H 4.054500 0.620400 0.076400 0
M  V30 10 C 0.102100 2.802500 0.869200 0
M  V30 11 C 3.066700 0.473900 0.521400 0
M  V30 12 N 0.911300 1.561800 1.014800 0
M  V30 13 C -0.131600 -0.111000 2.503300 0
M  V30 14 H 2.304000 2.291700 -0.369000 0
M  V30 15 H -1.155400 0.256700 2.431900 0
M  V30 16 C 1.335000 -1.892900 1.545300 0
M  V30 17 H 1.053700 -2.920400 1.794300 0
M  V30 18 H 3.228000 -2.230500 0.534900 0
M  V30 19 N 0.094800 -1.052900 1.352200 0
M  V30 20 N 2.280000 -0.507400 -0.313000 0
M  V30 21 C 2.216200 -1.882600 0.294200 0
M  V30 22 H -1.498400 -2.301100 2.058300 0
M  V30 23 C 2.878500 -0.579400 -1.682300 0
M  V30 24 C -1.159200 -1.838400 1.124400 0
M  V30 25 H 1.801700 -2.539100 -0.470200 0
M  V30 26 Fe 0.321940 0.066790 -0.362020 0 CHG=2 VAL=5
M  V30 27 H -0.937500 -2.631800 0.405300 0
M  V30 28 C -2.187500 -0.883400 0.561200 0
M  V30 29 N -1.659900 0.172200 -0.111900 0
M  V30 30 H -3.967300 -1.876400 1.237900 0
M  V30 31 C -3.561600 -1.034300 0.686500 0
M  V30 32 C -2.460400 1.084900 -0.692700 0
M  V30 33 H -1.959800 1.880200 -1.231800 0
M  V30 34 C -4.403300 -0.088600 0.089900 0
M  V30 35 C -3.845800 0.985700 -0.605600 0
M  V30 36 H -5.481000 -0.192300 0.169900 0
M  V30 37 H -4.468000 1.735400 -1.082300 0
M  V30 38 H 2.258000 -1.209200 -2.317500 0
M  V30 39 H 3.887200 -1.001000 -1.615500 0
M  V30 40 H 2.927800 0.429400 -2.093500 0
M  V30 41 H -0.917000 2.603400 1.205100 0
M  V30 42 H 0.091600 3.100200 -0.178400 0
M  V30 43 H 0.533300 3.606300 1.476400 0
M  V30 44 O 0.466500 1.313100 -1.594700 0 RAD=2 VAL=1
M  V30 45 H 0.446900 0.982400 -2.512200 0
M  V30 46 N 0.032100 -1.356600 -1.541400 0
M  V30 47 N -0.982000 -1.406100 -2.248700 0 CHG=1 VAL=4
M  V30 48 N -1.889400 -1.520200 -2.932000 0 CHG=-1 VAL=2
M  V30 END ATOM
M  V30 BEGIN BOND
M  V30 1 2 48 47
M  V30 2 1 45 44
M  V30 3 1 38 23
M  V30 4 2 47 46
M  V30 5 1 40 23
M  V30 6 1 23 39
M  V30 7 1 23 20
M  V30 8 1 33 32
M  V30 9 1 37 35
M  V30 10 1 32 35
M  V30 11 2 32 29
M  V30 12 2 35 34
M  V30 13 1 25 21
M  V30 14 1 14 7
M  V30 15 1 20 21
M  V30 16 1 20 11
M  V30 17 1 42 10
M  V30 18 1 29 28
M  V30 19 1 9 11
M  V30 20 1 34 36
M  V30 21 1 34 31
M  V30 22 1 21 18
M  V30 23 1 21 16
M  V30 24 1 27 24
M  V30 25 1 11 7
M  V30 26 1 11 5
M  V30 27 2 28 31
M  V30 28 1 28 24
M  V30 29 1 7 12
M  V30 30 1 7 2
M  V30 31 1 31 30
M  V30 32 1 10 12
M  V30 33 1 10 41
M  V30 34 1 10 43
M  V30 35 1 12 4
M  V30 36 1 24 19
M  V30 37 1 24 22
M  V30 38 1 19 16
M  V30 39 1 19 13
M  V30 40 1 16 17
M  V30 41 1 16 8
M  V30 42 1 4 13
M  V30 43 1 4 3
M  V30 44 1 4 1
M  V30 45 1 15 13
M  V30 46 1 13 6
M  V30 47 1 26 46
M  V30 48 9 12 26
M  V30 49 9 19 26
M  V30 50 9 20 26
M  V30 51 9 29 26
M  V30 END BOND
M  V30 END CTAB
M  END
