
     RDKit          3D

  0  0  0  0  0  0  0  0  0  0999 V3000
M  V30 BEGIN CTAB
M  V30 COUNTS 46 50 0 0 0
M  V30 BEGIN ATOM
M  V30 1 H -0.284390 1.577220 3.245350 0
M  V30 2 H -2.730870 0.060270 2.691760 0
M  V30 3 H -1.525010 2.117290 2.137120 0
M  V30 4 C -0.586480 1.567790 2.194490 0
M  V30 5 H -3.017120 1.705790 0.873150 0
M  V30 6 H 0.519840 3.300150 1.493720 0
M  V30 7 C -2.284340 -0.164050 1.715010 0
M  V30 8 H -1.433000 3.223400 0.208610 0
M  V30 9 H -3.978570 0.300620 0.467740 0
M  V30 10 C -0.095210 -0.781670 2.669620 0
M  V30 11 C -2.952660 0.647930 0.615250 0
M  V30 12 N -0.814870 0.144970 1.741750 0
M  V30 13 C 0.478730 2.215910 1.336820 0
M  V30 14 H -2.390470 -1.232430 1.525030 0
M  V30 15 H 1.459410 1.806960 1.580380 0
M  V30 16 C -0.963170 2.718110 -0.636590 0
M  V30 17 H -0.601310 3.500590 -1.310130 0
M  V30 18 H -2.925850 2.352680 -1.482390 0
M  V30 19 N 0.203980 1.923510 -0.109290 0
M  V30 20 N -2.187120 0.512100 -0.679040 0
M  V30 21 C -1.967620 1.830440 -1.376800 0
M  V30 22 H 1.926240 3.039440 -0.704480 0
M  V30 23 C -2.922480 -0.403630 -1.608390 0
M  V30 24 C 1.469760 2.060970 -0.893270 0
M  V30 25 H -1.598830 1.589360 -2.372680 0
M  V30 26 Fe -0.236460 -0.058340 -0.299940 0 CHG=2 VAL=6
M  V30 27 H 1.223280 1.984310 -1.954960 0
M  V30 28 C 2.382710 0.927520 -0.486850 0
M  V30 29 N 1.756360 -0.197070 -0.040940 0
M  V30 30 H 4.244990 1.909420 -0.899440 0
M  V30 31 C 3.766910 0.999680 -0.550370 0
M  V30 32 C 2.482520 -1.265710 0.343040 0
M  V30 33 H 1.928320 -2.135550 0.670090 0
M  V30 34 C 4.525700 -0.108880 -0.159300 0
M  V30 35 C 3.873400 -1.252680 0.300660 0
M  V30 36 H 5.609680 -0.073180 -0.208830 0
M  V30 37 H 4.424080 -2.131720 0.617590 0
M  V30 38 H -2.293570 -0.616100 -2.470970 0
M  V30 39 H -3.846950 0.088460 -1.930710 0
M  V30 40 H -3.157600 -1.332880 -1.093090 0
M  V30 41 H 0.965370 -0.525670 2.673440 0
M  V30 42 H -0.221930 -1.809750 2.336970 0
M  V30 43 H -0.499500 -0.672810 3.681940 0
M  V30 44 O 0.025190 -0.015300 -2.036500 0
M  V30 45 H 0.303850 -0.874200 -2.410760 0
M  V30 46 Br -0.631680 -2.461350 -0.298320 0
M  V30 END ATOM
M  V30 BEGIN BOND
M  V30 1 1 38 23
M  V30 2 1 45 44
M  V30 3 1 25 21
M  V30 4 1 44 26
M  V30 5 1 27 24
M  V30 6 1 39 23
M  V30 7 1 23 40
M  V30 8 1 23 20
M  V30 9 1 18 21
M  V30 10 1 21 20
M  V30 11 1 21 16
M  V30 12 1 17 16
M  V30 13 1 30 31
M  V30 14 1 24 22
M  V30 15 1 24 28
M  V30 16 1 24 19
M  V30 17 1 20 11
M  V30 18 1 16 19
M  V30 19 1 16 8
M  V30 20 1 31 28
M  V30 21 2 31 34
M  V30 22 2 28 29
M  V30 23 1 26 46
M  V30 24 1 36 34
M  V30 25 1 34 35
M  V30 26 1 19 13
M  V30 27 1 29 32
M  V30 28 2 35 32
M  V30 29 1 35 37
M  V30 30 1 32 33
M  V30 31 1 9 11
M  V30 32 1 11 5
M  V30 33 1 11 7
M  V30 34 1 13 6
M  V30 35 1 13 15
M  V30 36 1 13 4
M  V30 37 1 14 7
M  V30 38 1 7 12
M  V30 39 1 7 2
M  V30 40 1 12 4
M  V30 41 1 12 10
M  V30 42 1 3 4
M  V30 43 1 4 1
M  V30 44 1 42 10
M  V30 45 1 10 41
M  V30 46 1 10 43
M  V30 47 9 12 26
M  V30 48 9 19 26
M  V30 49 9 20 26
M  V30 50 9 29 26
M  V30 END BOND
M  V30 END CTAB
M  END
