
     RDKit          3D

  0  0  0  0  0  0  0  0  0  0999 V3000
M  V30 BEGIN CTAB
M  V30 COUNTS 46 50 0 0 0
M  V30 BEGIN ATOM
M  V30 1 H -0.489520 0.559230 3.417500 0
M  V30 2 H -2.785540 -1.013330 2.471180 0
M  V30 3 H -1.762770 1.225770 2.419650 0
M  V30 4 C -0.780870 0.756300 2.382030 0
M  V30 5 H -3.201110 0.973240 1.056090 0
M  V30 6 H 0.179890 2.684760 2.098740 0
M  V30 7 C -2.311480 -0.968780 1.482870 0
M  V30 8 H -1.742290 2.733810 0.773240 0
M  V30 9 H -4.030940 -0.382630 0.323000 0
M  V30 10 C -0.081040 -1.591460 2.328970 0
M  V30 11 C -3.041210 0.008200 0.573420 0
M  V30 12 N -0.878460 -0.542990 1.621750 0
M  V30 13 C 0.232820 1.659790 1.713980 0
M  V30 14 H -2.312620 -1.970690 1.052780 0
M  V30 15 H 1.242390 1.288770 1.891300 0
M  V30 16 C -1.225750 2.461600 -0.148450 0
M  V30 17 H -0.922530 3.396210 -0.629070 0
M  V30 18 H -3.148360 2.128360 -1.096420 0
M  V30 19 N 0.000550 1.665830 0.229020 0
M  V30 20 N -2.253200 0.226340 -0.695140 0
M  V30 21 C -2.149070 1.677460 -1.086990 0
M  V30 22 H 1.631570 3.020420 -0.045050 0
M  V30 23 C -2.877550 -0.542650 -1.816930 0
M  V30 24 C 1.263510 2.076350 -0.462460 0
M  V30 25 H -1.757840 1.692100 -2.103040 0
M  V30 26 Fe -0.269450 -0.243560 -0.392520 0 CHG=2 VAL=6
M  V30 27 H 1.040460 2.220190 -1.522300 0
M  V30 28 C 2.261370 0.954360 -0.289360 0
M  V30 29 N 1.719560 -0.283780 -0.125890 0
M  V30 30 H 4.050110 2.132690 -0.420140 0
M  V30 31 C 3.636730 1.136370 -0.299770 0
M  V30 32 C 2.515440 -1.361560 0.011840 0
M  V30 33 H 2.019180 -2.318430 0.110110 0
M  V30 34 C 4.470960 0.021840 -0.156230 0
M  V30 35 C 3.902010 -1.241530 0.006410 0
M  V30 36 H 5.549750 0.143560 -0.168800 0
M  V30 37 H 4.514590 -2.129310 0.120400 0
M  V30 38 H -2.226840 -0.494650 -2.687960 0
M  V30 39 H -3.851200 -0.098780 -2.052410 0
M  V30 40 H -3.004090 -1.581130 -1.516240 0
M  V30 41 H 0.950120 -1.248360 2.425090 0
M  V30 42 H -0.107330 -2.518350 1.759670 0
M  V30 43 H -0.502550 -1.760880 3.325820 0
M  V30 44 O 0.007810 0.205870 -2.069160 0
M  V30 45 H 0.318420 -0.551150 -2.604790 0
M  V30 46 Cl -0.454240 -2.422440 -0.840200 0
M  V30 END ATOM
M  V30 BEGIN BOND
M  V30 1 1 38 23
M  V30 2 1 45 44
M  V30 3 1 25 21
M  V30 4 1 44 26
M  V30 5 1 39 23
M  V30 6 1 23 40
M  V30 7 1 23 20
M  V30 8 1 27 24
M  V30 9 1 18 21
M  V30 10 1 21 20
M  V30 11 1 21 16
M  V30 12 1 46 26
M  V30 13 1 20 11
M  V30 14 1 17 16
M  V30 15 1 24 28
M  V30 16 1 24 22
M  V30 17 1 24 19
M  V30 18 1 30 31
M  V30 19 1 31 28
M  V30 20 2 31 34
M  V30 21 2 28 29
M  V30 22 1 36 34
M  V30 23 1 34 35
M  V30 24 1 16 19
M  V30 25 1 16 8
M  V30 26 1 29 32
M  V30 27 2 35 32
M  V30 28 1 35 37
M  V30 29 1 32 33
M  V30 30 1 19 13
M  V30 31 1 9 11
M  V30 32 1 11 5
M  V30 33 1 11 7
M  V30 34 1 14 7
M  V30 35 1 7 12
M  V30 36 1 7 2
M  V30 37 1 12 10
M  V30 38 1 12 4
M  V30 39 1 13 15
M  V30 40 1 13 6
M  V30 41 1 13 4
M  V30 42 1 42 10
M  V30 43 1 10 41
M  V30 44 1 10 43
M  V30 45 1 4 3
M  V30 46 1 4 1
M  V30 47 9 12 26
M  V30 48 9 19 26
M  V30 49 9 20 26
M  V30 50 9 29 26
M  V30 END BOND
M  V30 END CTAB
M  END
