
     RDKit          3D

  0  0  0  0  0  0  0  0  0  0999 V3000
M  V30 BEGIN CTAB
M  V30 COUNTS 48 52 0 0 0
M  V30 BEGIN ATOM
M  V30 1 H -0.489330 -1.880750 3.126040 0
M  V30 2 H 2.419830 -1.366480 2.673890 0
M  V30 3 H 0.521680 -2.774580 2.015310 0
M  V30 4 C -0.145190 -1.916040 2.088150 0
M  V30 5 H 2.060360 -2.867250 0.737240 0
M  V30 6 H -1.766680 -3.070540 1.211640 0
M  V30 7 C 2.088290 -0.929140 1.723620 0
M  V30 8 H 0.102440 -3.618040 -0.061140 0
M  V30 9 H 3.501950 -1.927060 0.430100 0
M  V30 10 C 0.292530 0.409570 2.731340 0
M  V30 11 C 2.418210 -1.852980 0.557210 0
M  V30 12 N 0.615410 -0.660980 1.751030 0
M  V30 13 C -1.330840 -2.066720 1.152440 0
M  V30 14 H 2.589940 0.033040 1.601340 0
M  V30 15 H -2.108430 -1.352300 1.423490 0
M  V30 16 C -0.129180 -2.914280 -0.862650 0
M  V30 17 H -0.747060 -3.453440 -1.586420 0
M  V30 18 H 1.847470 -3.223440 -1.706940 0
M  V30 19 N -0.915960 -1.773800 -0.264730 0
M  V30 20 N 1.788370 -1.328590 -0.704530 0
M  V30 21 C 1.142590 -2.401140 -1.534940 0
M  V30 22 H -2.913360 -2.143130 -0.946730 0
M  V30 23 C 2.820350 -0.626840 -1.526040 0
M  V30 24 C -2.128000 -1.386170 -1.053970 0
M  V30 25 H 0.903380 -1.940580 -2.492550 0
M  V30 26 Fe 0.208950 -0.119330 -0.248260 0 CHG=2 VAL=6
M  V30 27 H -1.833930 -1.315220 -2.103370 0
M  V30 28 C -2.577560 -0.032550 -0.555300 0
M  V30 29 N -1.595030 0.728700 -0.007050 0
M  V30 30 H -4.657130 -0.203360 -1.064680 0
M  V30 31 C -3.886340 0.427150 -0.633170 0
M  V30 32 C -1.883020 1.955230 0.468070 0
M  V30 33 H -1.055900 2.511650 0.891060 0
M  V30 34 C -4.187230 1.703290 -0.148710 0
M  V30 35 C -3.170880 2.476960 0.415320 0
M  V30 36 H -5.202500 2.083460 -0.205190 0
M  V30 37 H -3.366640 3.468990 0.807570 0
M  V30 38 H 2.325470 -0.118190 -2.351340 0
M  V30 39 H 3.545050 -1.354330 -1.907650 0
M  V30 40 H 3.336980 0.101370 -0.899800 0
M  V30 41 H -0.786460 0.573590 2.736640 0
M  V30 42 H 0.793770 1.332140 2.439140 0
M  V30 43 H 0.619810 0.123510 3.737380 0
M  V30 44 O 0.009370 0.115890 -2.013640 0
M  V30 45 H -0.196790 1.042220 -2.232900 0
M  V30 46 N 1.171850 1.478490 -0.053490 0
M  V30 47 C 1.763170 2.507580 -0.169430 0
M  V30 48 S 2.567160 3.892740 -0.291780 0
M  V30 END ATOM
M  V30 BEGIN BOND
M  V30 1 1 25 21
M  V30 2 1 38 23
M  V30 3 1 45 44
M  V30 4 1 27 24
M  V30 5 1 44 26
M  V30 6 1 39 23
M  V30 7 1 18 21
M  V30 8 1 17 16
M  V30 9 1 21 16
M  V30 10 1 21 20
M  V30 11 1 23 40
M  V30 12 1 23 20
M  V30 13 1 30 31
M  V30 14 1 24 22
M  V30 15 1 24 28
M  V30 16 1 24 19
M  V30 17 1 16 19
M  V30 18 1 16 8
M  V30 19 1 20 11
M  V30 20 1 31 28
M  V30 21 2 31 34
M  V30 22 2 28 29
M  V30 23 2 48 47
M  V30 24 1 19 13
M  V30 25 1 26 46
M  V30 26 1 36 34
M  V30 27 2 47 46
M  V30 28 1 34 35
M  V30 29 1 29 32
M  V30 30 2 35 32
M  V30 31 1 35 37
M  V30 32 1 9 11
M  V30 33 1 32 33
M  V30 34 1 11 5
M  V30 35 1 11 7
M  V30 36 1 13 6
M  V30 37 1 13 15
M  V30 38 1 13 4
M  V30 39 1 14 7
M  V30 40 1 7 12
M  V30 41 1 7 2
M  V30 42 1 12 4
M  V30 43 1 12 10
M  V30 44 1 3 4
M  V30 45 1 4 1
M  V30 46 1 42 10
M  V30 47 1 10 41
M  V30 48 1 10 43
M  V30 49 9 12 26
M  V30 50 9 19 26
M  V30 51 9 20 26
M  V30 52 9 29 26
M  V30 END BOND
M  V30 END CTAB
M  END
