
     RDKit          3D

  0  0  0  0  0  0  0  0  0  0999 V3000
M  V30 BEGIN CTAB
M  V30 COUNTS 48 51 0 0 0
M  V30 BEGIN ATOM
M  V30 1 H 0.559100 1.767800 3.206000 0
M  V30 2 H 2.881600 2.426500 1.466200 0
M  V30 3 H 1.840500 0.655100 2.788600 0
M  V30 4 C 0.853300 1.001000 2.483500 0
M  V30 5 H 3.226500 -0.020000 1.487000 0
M  V30 6 H -0.073700 -0.733700 3.410300 0
M  V30 7 C 2.364900 1.821400 0.710800 0
M  V30 8 H 1.836300 -1.548800 2.307500 0
M  V30 9 H 4.049900 0.625100 0.085200 0
M  V30 10 C 0.168900 2.872400 1.053400 0
M  V30 11 C 3.062400 0.477900 0.530800 0
M  V30 12 N 0.937200 1.597600 1.103700 0
M  V30 13 C -0.150200 -0.136400 2.494200 0
M  V30 14 H 2.358300 2.379300 -0.227100 0
M  V30 15 H -1.163800 0.261700 2.440900 0
M  V30 16 C 1.279800 -1.888600 1.432700 0
M  V30 17 H 0.977000 -2.920500 1.634300 0
M  V30 18 H 3.143600 -2.228600 0.372500 0
M  V30 19 N 0.058800 -1.014200 1.293800 0
M  V30 20 N 2.240200 -0.426900 -0.352300 0
M  V30 21 C 2.140400 -1.834100 0.171100 0
M  V30 22 H -1.545000 -2.296400 1.900200 0
M  V30 23 C 2.820700 -0.451900 -1.730200 0
M  V30 24 C -1.199600 -1.769100 1.003400 0
M  V30 25 H 1.688500 -2.424800 -0.624800 0
M  V30 26 Fe 0.299390 0.192410 -0.350780 0 CHG=2 VAL=5
M  V30 27 H -0.976800 -2.503000 0.225100 0
M  V30 28 C -2.221000 -0.771300 0.508500 0
M  V30 29 N -1.690600 0.322600 -0.098800 0
M  V30 30 H -3.998100 -1.792800 1.150200 0
M  V30 31 C -3.594900 -0.917900 0.650300 0
M  V30 32 C -2.497200 1.287700 -0.581200 0
M  V30 33 H -2.005700 2.129100 -1.054600 0
M  V30 34 C -4.438600 0.076400 0.144100 0
M  V30 35 C -3.881500 1.196900 -0.475200 0
M  V30 36 H -5.515600 -0.021800 0.239600 0
M  V30 37 H -4.503400 1.990700 -0.874600 0
M  V30 38 H 2.135600 -0.972700 -2.397500 0
M  V30 39 H 3.786000 -0.969000 -1.709300 0
M  V30 40 H 2.969400 0.574000 -2.069300 0
M  V30 41 H -0.859500 2.678600 1.363800 0
M  V30 42 H 0.174200 3.257600 0.034400 0
M  V30 43 H 0.616900 3.612200 1.726200 0
M  V30 44 O -0.007000 -1.128000 -1.520700 0 RAD=2 VAL=1
M  V30 45 H -0.892900 -1.086600 -1.925100 0
M  V30 46 N 0.443900 1.518100 -1.597900 0
M  V30 47 N 0.373500 1.276900 -2.811000 0 CHG=1 VAL=4
M  V30 48 N 0.322700 1.133400 -3.939500 0 CHG=-1 VAL=2
M  V30 END ATOM
M  V30 BEGIN BOND
M  V30 1 2 48 47
M  V30 2 2 47 46
M  V30 3 1 38 23
M  V30 4 1 40 23
M  V30 5 1 45 44
M  V30 6 1 23 39
M  V30 7 1 23 20
M  V30 8 1 33 32
M  V30 9 1 37 35
M  V30 10 1 25 21
M  V30 11 1 32 35
M  V30 12 2 32 29
M  V30 13 2 35 34
M  V30 14 1 20 21
M  V30 15 1 20 11
M  V30 16 1 14 7
M  V30 17 1 29 28
M  V30 18 1 42 10
M  V30 19 1 9 11
M  V30 20 1 34 36
M  V30 21 1 34 31
M  V30 22 1 21 18
M  V30 23 1 21 16
M  V30 24 1 27 24
M  V30 25 2 28 31
M  V30 26 1 28 24
M  V30 27 1 11 7
M  V30 28 1 11 5
M  V30 29 1 31 30
M  V30 30 1 7 12
M  V30 31 1 7 2
M  V30 32 1 24 19
M  V30 33 1 24 22
M  V30 34 1 10 12
M  V30 35 1 10 41
M  V30 36 1 10 43
M  V30 37 1 12 4
M  V30 38 1 19 16
M  V30 39 1 19 13
M  V30 40 1 16 17
M  V30 41 1 16 8
M  V30 42 1 15 13
M  V30 43 1 4 13
M  V30 44 1 4 3
M  V30 45 1 4 1
M  V30 46 1 13 6
M  V30 47 1 26 46
M  V30 48 9 12 26
M  V30 49 9 19 26
M  V30 50 9 20 26
M  V30 51 9 29 26
M  V30 END BOND
M  V30 END CTAB
M  END
