
     RDKit          3D

  0  0  0  0  0  0  0  0  0  0999 V3000
M  V30 BEGIN CTAB
M  V30 COUNTS 52 56 0 0 0
M  V30 BEGIN ATOM
M  V30 1 C 2.927800 -3.524600 -1.437500 0
M  V30 2 C 2.212300 -2.364800 -1.200500 0 CHG=-1 VAL=3
M  V30 3 N 2.823700 -1.206200 -0.695000 0
M  V30 4 C 4.188300 -1.313800 -0.448700 0
M  V30 5 C 4.933700 -2.438900 -0.690700 0
M  V30 6 C 4.316800 -3.610100 -1.215200 0
M  V30 7 C 0.736900 -2.307200 -1.513500 0
M  V30 8 Fe 1.953400 0.507600 -0.144000 0 VAL=3
M  V30 9 N -0.074800 0.049300 0.627700 0
M  V30 10 C -0.040600 -0.922100 1.724300 0
M  V30 11 C 0.233100 -2.242900 0.964800 0
M  V30 12 N -0.204600 -1.993900 -0.419200 0
M  V30 13 C -0.851500 -0.679900 -0.460800 0
M  V30 14 C -0.536900 1.402100 0.968700 0
M  V30 15 C -0.230700 2.348700 -0.169900 0 RAD=2 VAL=3
M  V30 16 N 1.002700 2.127700 -0.778400 0 CHG=-1 VAL=2
M  V30 17 C 1.365800 3.032300 -1.755300 0
M  V30 18 C 0.566800 4.078100 -2.162500 0
M  V30 19 C -0.706600 4.270100 -1.577300 0
M  V30 20 C -1.078500 3.363000 -0.555900 0
M  V30 21 H -2.045300 3.443000 -0.063900 0
M  V30 22 H -1.369800 5.068700 -1.895400 0
M  V30 23 H 0.928100 4.742000 -2.946900 0
M  V30 24 H 2.342500 2.856100 -2.199500 0
M  V30 25 H 4.636800 -0.428000 -0.009100 0
M  V30 26 H 5.997500 -2.419800 -0.458300 0
M  V30 27 H 4.875000 -4.521200 -1.411000 0
M  V30 28 H 2.380100 -4.388400 -1.813700 0
M  V30 29 H 0.758500 -0.655700 2.422200 0
M  V30 30 H -1.006100 -0.957600 2.253200 0
M  V30 31 H 1.300200 -2.484500 0.990700 0
M  V30 32 H -0.315600 -3.079500 1.421900 0
M  V30 33 H 0.459800 -3.272200 -1.965700 0
M  V30 34 H 0.570700 -1.543900 -2.289900 0
M  V30 35 H -1.606200 1.416100 1.220000 0
M  V30 36 H 0.047400 1.704400 1.849300 0
M  V30 37 H -0.604900 -0.162600 -1.394900 0
M  V30 38 C -2.349400 -0.701700 -0.284700 0
M  V30 39 C -3.147000 0.360300 -0.799600 0
M  V30 40 C -3.038800 -1.731300 0.412500 0
M  V30 41 C -4.512400 0.409400 -0.616000 0
M  V30 42 H -2.654500 1.160000 -1.352400 0
M  V30 43 C -4.404800 -1.701000 0.607100 0
M  V30 44 H -2.473800 -2.587700 0.774400 0
M  V30 45 C -5.212500 -0.617600 0.109500 0
M  V30 46 H -5.098900 1.228100 -1.025600 0
M  V30 47 H -4.894200 -2.515400 1.134900 0
M  V30 48 C -6.619300 -0.532800 0.280100 0
M  V30 49 O -7.405900 0.356600 -0.124900 0
M  V30 50 O -7.191600 -1.609600 1.005500 0
M  V30 51 H -8.128300 -1.349100 0.997500 0
M  V30 52 Br 3.272800 1.293800 2.006900 0
M  V30 END ATOM
M  V30 BEGIN BOND
M  V30 1 2 1 6
M  V30 2 1 1 2
M  V30 3 1 2 7
M  V30 4 1 2 3
M  V30 5 1 3 4
M  V30 6 1 3 8
M  V30 7 1 4 25
M  V30 8 1 5 26
M  V30 9 2 5 4
M  V30 10 1 6 5
M  V30 11 1 7 12
M  V30 12 1 8 52
M  V30 13 1 9 14
M  V30 14 1 9 10
M  V30 15 1 10 30
M  V30 16 1 10 29
M  V30 17 1 11 31
M  V30 18 1 11 32
M  V30 19 1 11 10
M  V30 20 1 12 11
M  V30 21 1 13 37
M  V30 22 1 13 12
M  V30 23 1 13 38
M  V30 24 1 13 9
M  V30 25 1 14 35
M  V30 26 1 14 36
M  V30 27 1 15 14
M  V30 28 1 16 15
M  V30 29 1 17 16
M  V30 30 2 18 17
M  V30 31 1 18 19
M  V30 32 2 19 20
M  V30 33 1 20 15
M  V30 34 1 20 21
M  V30 35 1 22 19
M  V30 36 1 23 18
M  V30 37 1 24 17
M  V30 38 1 27 6
M  V30 39 1 28 1
M  V30 40 1 33 7
M  V30 41 1 34 7
M  V30 42 2 38 40
M  V30 43 2 39 41
M  V30 44 1 39 38
M  V30 45 1 40 43
M  V30 46 1 40 44
M  V30 47 1 41 45
M  V30 48 1 42 39
M  V30 49 1 43 47
M  V30 50 1 45 48
M  V30 51 2 45 43
M  V30 52 1 46 41
M  V30 53 1 48 50
M  V30 54 2 49 48
M  V30 55 1 51 50
M  V30 56 9 9 8
M  V30 END BOND
M  V30 END CTAB
M  END
