
     RDKit          3D

  0  0  0  0  0  0  0  0  0  0999 V3000
M  V30 BEGIN CTAB
M  V30 COUNTS 54 58 0 0 0
M  V30 BEGIN ATOM
M  V30 1 C -0.912100 1.396300 3.621800 0
M  V30 2 C -1.245100 0.509800 2.612600 0 CHG=-1 VAL=3
M  V30 3 N -2.086000 0.870200 1.554100 0
M  V30 4 C -2.593500 2.156400 1.617400 0
M  V30 5 C -2.300000 3.065700 2.604800 0
M  V30 6 C -1.427100 2.705700 3.661600 0
M  V30 7 C -0.740700 -0.910700 2.648600 0
M  V30 8 Fe -2.178700 -0.005200 -0.261300 0 VAL=3
M  V30 9 N -0.116800 -0.736500 -0.649900 0
M  V30 10 C -0.052300 -2.202000 -0.669600 0
M  V30 11 C -0.313400 -2.541400 0.804900 0
M  V30 12 N 0.134900 -1.358800 1.551600 0
M  V30 13 C 0.688400 -0.380500 0.608900 0
M  V30 14 C 0.274200 -0.096600 -1.916700 0
M  V30 15 C -0.300200 1.291600 -2.016700 0 RAD=2 VAL=3
M  V30 16 N -1.630100 1.382800 -1.611000 0 CHG=-1 VAL=2
M  V30 17 C -2.228500 2.611600 -1.819500 0
M  V30 18 C -1.571400 3.713000 -2.324400 0
M  V30 19 C -0.205400 3.626500 -2.676800 0
M  V30 20 C 0.412300 2.362500 -2.508700 0
M  V30 21 H 1.459500 2.213800 -2.763100 0
M  V30 22 H 0.344500 4.481000 -3.059400 0
M  V30 23 H -2.122500 4.644800 -2.446600 0
M  V30 24 H -3.281400 2.659200 -1.551300 0
M  V30 25 H -3.252500 2.428400 0.798400 0
M  V30 26 H -2.747300 4.056900 2.555600 0
M  V30 27 H -1.164600 3.399300 4.454900 0
M  V30 28 H -0.234800 1.050000 4.400500 0
M  V30 29 H -0.827500 -2.602200 -1.329800 0
M  V30 30 H 0.938100 -2.551300 -0.999500 0
M  V30 31 H -1.389700 -2.707200 0.953500 0
M  V30 32 H 0.219000 -3.455900 1.108100 0
M  V30 33 H -1.620200 -1.576900 2.651100 0
M  V30 34 H -0.232800 -1.060200 3.614300 0
M  V30 35 H 1.363100 -0.098700 -2.052300 0
M  V30 36 H -0.174500 -0.714400 -2.710600 0
M  V30 37 H 0.388500 0.634400 0.882900 0
M  V30 38 C 2.183100 -0.432900 0.443000 0
M  V30 39 C 2.883400 0.704100 -0.054800 0
M  V30 40 C 2.959600 -1.593400 0.707500 0
M  V30 41 C 4.240500 0.681900 -0.293900 0
M  V30 42 H 2.318400 1.615200 -0.256100 0
M  V30 43 C 4.319700 -1.635400 0.477200 0
M  V30 44 H 2.465700 -2.463000 1.137500 0
M  V30 45 C 5.028500 -0.497500 -0.049100 0
M  V30 46 H 4.754300 1.563800 -0.667800 0
M  V30 47 H 4.880600 -2.537700 0.706200 0
M  V30 48 C 6.424100 -0.484000 -0.311200 0
M  V30 49 O 7.128100 0.453800 -0.755200 0
M  V30 50 O 7.089400 -1.702300 -0.022400 0
M  V30 51 H 8.001000 -1.469000 -0.267100 0
M  V30 52 N -3.459300 -1.526700 -0.658500 0
M  V30 53 C -4.231300 -2.396000 -0.883700 0
M  V30 54 S -5.302100 -3.608100 -1.196700 0
M  V30 END ATOM
M  V30 BEGIN BOND
M  V30 1 2 1 6
M  V30 2 1 1 28
M  V30 3 1 2 7
M  V30 4 1 2 1
M  V30 5 1 3 4
M  V30 6 1 3 2
M  V30 7 2 4 5
M  V30 8 1 5 6
M  V30 9 1 6 27
M  V30 10 1 7 33
M  V30 11 1 7 34
M  V30 12 1 8 3
M  V30 13 1 9 13
M  V30 14 1 10 9
M  V30 15 1 10 11
M  V30 16 1 11 31
M  V30 17 1 11 32
M  V30 18 1 11 12
M  V30 19 1 12 7
M  V30 20 1 13 37
M  V30 21 1 13 12
M  V30 22 1 14 9
M  V30 23 1 15 14
M  V30 24 1 15 16
M  V30 25 1 17 16
M  V30 26 1 17 24
M  V30 27 2 18 17
M  V30 28 2 19 20
M  V30 29 1 19 18
M  V30 30 1 20 15
M  V30 31 1 21 20
M  V30 32 1 22 19
M  V30 33 1 23 18
M  V30 34 1 25 4
M  V30 35 1 26 5
M  V30 36 1 29 10
M  V30 37 1 30 10
M  V30 38 1 35 14
M  V30 39 1 36 14
M  V30 40 1 38 13
M  V30 41 1 38 40
M  V30 42 2 39 38
M  V30 43 1 40 44
M  V30 44 1 41 39
M  V30 45 2 41 45
M  V30 46 1 42 39
M  V30 47 1 43 47
M  V30 48 2 43 40
M  V30 49 1 45 43
M  V30 50 1 46 41
M  V30 51 1 48 45
M  V30 52 1 48 50
M  V30 53 2 49 48
M  V30 54 1 51 50
M  V30 55 1 52 8
M  V30 56 2 53 52
M  V30 57 2 54 53
M  V30 58 9 9 8
M  V30 END BOND
M  V30 END CTAB
M  END
