
     RDKit          3D

  0  0  0  0  0  0  0  0  0  0999 V3000
M  V30 BEGIN CTAB
M  V30 COUNTS 52 55 0 0 0
M  V30 BEGIN ATOM
M  V30 1 C 3.387900 -3.171900 -1.372900 0
M  V30 2 C 2.604500 -2.071100 -1.077700 0 CHG=-1 VAL=3
M  V30 3 N 3.129800 -0.934600 -0.443000 0 CHG=-1 VAL=2
M  V30 4 C 4.482300 -1.003700 -0.125600 0
M  V30 5 C 5.295200 -2.067800 -0.421300 0
M  V30 6 C 4.766800 -3.213500 -1.082100 0
M  V30 7 C 1.144500 -2.054800 -1.460700 0
M  V30 8 Fe 2.176000 0.697200 0.226800 0 VAL=2
M  V30 9 N 0.119900 0.096400 0.814700 0
M  V30 10 C 0.136800 -0.959100 1.830100 0
M  V30 11 C 0.517600 -2.199900 0.986000 0
M  V30 12 N 0.141400 -1.859000 -0.395800 0
M  V30 13 C -0.558500 -0.572000 -0.373200 0
M  V30 14 C -0.421700 1.398200 1.228800 0
M  V30 15 C -0.095100 2.441800 0.184200 0 RAD=2 VAL=3
M  V30 16 N 1.181000 2.317400 -0.362400 0 RAD=2 VAL=2
M  V30 17 C 1.559900 3.315200 -1.238700 0
M  V30 18 C 0.741100 4.357800 -1.611000 0
M  V30 19 C -0.574200 4.451000 -1.094400 0
M  V30 20 C -0.963700 3.449100 -0.171900 0
M  V30 21 H -1.959500 3.451400 0.266200 0
M  V30 22 H -1.252800 5.245400 -1.390200 0
M  V30 23 H 1.118700 5.097800 -2.315800 0
M  V30 24 H 2.568200 3.214800 -1.633500 0
M  V30 25 H 4.860700 -0.142500 0.417300 0
M  V30 26 H 6.342600 -2.022400 -0.125900 0
M  V30 27 H 5.379300 -4.077700 -1.323300 0
M  V30 28 H 2.903900 -4.023800 -1.850100 0
M  V30 29 H 0.881200 -0.717800 2.594700 0
M  V30 30 H -0.854400 -1.080700 2.295100 0
M  V30 31 H 1.593000 -2.391600 1.054000 0
M  V30 32 H -0.011100 -3.095600 1.344500 0
M  V30 33 H 0.933800 -2.996700 -1.991100 0
M  V30 34 H 0.978200 -1.247200 -2.190700 0
M  V30 35 H -1.502900 1.348600 1.417300 0
M  V30 36 H 0.097000 1.653900 2.163900 0
M  V30 37 H -0.281200 0.029800 -1.245900 0
M  V30 38 C -2.061900 -0.670700 -0.290300 0
M  V30 39 C -2.879600 0.395600 -0.762800 0
M  V30 40 C -2.739100 -1.786200 0.274100 0
M  V30 41 C -4.254200 0.368300 -0.660300 0
M  V30 42 H -2.395800 1.261000 -1.214900 0
M  V30 43 C -4.114000 -1.833200 0.386000 0
M  V30 44 H -2.154400 -2.645300 0.596100 0
M  V30 45 C -4.943900 -0.747500 -0.067900 0
M  V30 46 H -4.855500 1.192700 -1.035300 0
M  V30 47 H -4.592400 -2.711300 0.812100 0
M  V30 48 C -6.360700 -0.740300 0.021700 0
M  V30 49 O -7.166000 0.144900 -0.355200 0
M  V30 50 O -6.920300 -1.900500 0.617400 0
M  V30 51 H -7.866500 -1.681900 0.572400 0
M  V30 52 Cl 3.303600 1.317700 2.287900 0
M  V30 END ATOM
M  V30 BEGIN BOND
M  V30 1 2 1 6
M  V30 2 1 1 2
M  V30 3 1 2 7
M  V30 4 1 2 3
M  V30 5 1 3 4
M  V30 6 1 4 25
M  V30 7 1 5 26
M  V30 8 2 5 4
M  V30 9 1 6 5
M  V30 10 1 7 12
M  V30 11 1 8 52
M  V30 12 1 9 14
M  V30 13 1 9 10
M  V30 14 1 10 30
M  V30 15 1 10 29
M  V30 16 1 11 31
M  V30 17 1 11 32
M  V30 18 1 11 10
M  V30 19 1 12 13
M  V30 20 1 12 11
M  V30 21 1 13 37
M  V30 22 1 13 38
M  V30 23 1 13 9
M  V30 24 1 14 35
M  V30 25 1 14 36
M  V30 26 1 15 14
M  V30 27 1 16 15
M  V30 28 1 17 16
M  V30 29 2 18 17
M  V30 30 1 18 19
M  V30 31 2 19 20
M  V30 32 1 20 15
M  V30 33 1 20 21
M  V30 34 1 22 19
M  V30 35 1 23 18
M  V30 36 1 24 17
M  V30 37 1 27 6
M  V30 38 1 28 1
M  V30 39 1 33 7
M  V30 40 1 34 7
M  V30 41 2 38 40
M  V30 42 2 39 41
M  V30 43 1 39 38
M  V30 44 1 40 43
M  V30 45 1 40 44
M  V30 46 1 41 45
M  V30 47 1 42 39
M  V30 48 1 43 47
M  V30 49 1 45 48
M  V30 50 2 45 43
M  V30 51 1 46 41
M  V30 52 1 48 50
M  V30 53 2 49 48
M  V30 54 1 51 50
M  V30 55 9 9 8
M  V30 END BOND
M  V30 END CTAB
M  END
