
     RDKit          3D

  0  0  0  0  0  0  0  0  0  0999 V3000
M  V30 BEGIN CTAB
M  V30 COUNTS 42 47 0 0 0
M  V30 BEGIN ATOM
M  V30 1 Fe 0.149260 0.402250 -0.920070 0 CHG=1 VAL=6
M  V30 2 N 0.152330 -1.617030 0.216380 0
M  V30 3 N -1.967820 -0.093550 -0.702080 0
M  V30 4 N 2.210790 0.082280 -0.331200 0
M  V30 5 N -1.071800 1.765030 3.040450 0
M  V30 6 H -1.451260 2.426000 3.705230 0
M  V30 7 N -0.175200 0.965240 1.210240 0
M  V30 8 C -1.035510 -2.298070 -0.343520 0
M  V30 9 H -1.265920 -3.225930 0.197260 0
M  V30 10 H -0.797740 -2.549360 -1.381700 0
M  V30 11 C -2.232220 -1.371200 -0.369290 0
M  V30 12 C -3.535760 -1.802500 -0.136930 0
M  V30 13 H -3.725870 -2.835230 0.137760 0
M  V30 14 C -4.583230 -0.888490 -0.271380 0
M  V30 15 H -5.608080 -1.203430 -0.099750 0
M  V30 16 C -4.297150 0.430050 -0.625910 0
M  V30 17 H -5.083360 1.167890 -0.743400 0
M  V30 18 C -2.966950 0.790640 -0.827640 0
M  V30 19 H -2.668450 1.798970 -1.096650 0
M  V30 20 C 1.435530 -2.208980 -0.229380 0
M  V30 21 H 1.334930 -2.427260 -1.296380 0
M  V30 22 H 1.667000 -3.141560 0.302490 0
M  V30 23 C 2.548970 -1.195080 -0.065740 0
M  V30 24 C 3.849300 -1.536780 0.295820 0
M  V30 25 H 4.098430 -2.570070 0.515860 0
M  V30 26 C 4.817390 -0.531870 0.363670 0
M  V30 27 H 5.838810 -0.776000 0.639350 0
M  V30 28 C 4.456050 0.785220 0.079920 0
M  V30 29 H 5.179170 1.592320 0.122900 0
M  V30 30 C 3.132650 1.053150 -0.261850 0
M  V30 31 H 2.778820 2.052540 -0.493880 0
M  V30 32 C 0.097750 -1.452060 1.698210 0
M  V30 33 H 1.110520 -1.604960 2.086120 0
M  V30 34 H -0.533700 -2.228190 2.147690 0
M  V30 35 C -0.371070 -0.079550 2.087300 0
M  V30 36 C -0.934290 0.402650 3.240320 0
M  V30 37 H -1.231300 -0.075820 4.160870 0
M  V30 38 C -0.608770 2.063450 1.802560 0
M  V30 39 H -0.614810 3.048150 1.359060 0
M  V30 40 O 0.315810 -0.576390 -2.462640 0
M  V30 41 H 0.348650 -0.084490 -3.300010 0
M  V30 42 Cl 0.090750 2.594820 -1.529010 0
M  V30 END ATOM
M  V30 BEGIN BOND
M  V30 1 1 41 40
M  V30 2 1 40 1
M  V30 3 1 42 1
M  V30 4 1 10 8
M  V30 5 1 21 20
M  V30 6 1 19 18
M  V30 7 2 18 3
M  V30 8 1 18 16
M  V30 9 1 17 16
M  V30 10 1 3 11
M  V30 11 2 16 14
M  V30 12 1 31 30
M  V30 13 1 11 8
M  V30 14 2 11 12
M  V30 15 1 8 9
M  V30 16 1 8 2
M  V30 17 2 4 30
M  V30 18 1 4 23
M  V30 19 1 14 12
M  V30 20 1 14 15
M  V30 21 1 30 28
M  V30 22 1 20 23
M  V30 23 1 20 2
M  V30 24 1 20 22
M  V30 25 1 12 13
M  V30 26 2 23 24
M  V30 27 1 28 29
M  V30 28 2 28 26
M  V30 29 1 2 32
M  V30 30 1 24 26
M  V30 31 1 24 25
M  V30 32 1 26 27
M  V30 33 2 7 38
M  V30 34 1 7 35
M  V30 35 1 39 38
M  V30 36 1 32 33
M  V30 37 1 32 35
M  V30 38 1 32 34
M  V30 39 1 38 5
M  V30 40 2 35 36
M  V30 41 1 5 36
M  V30 42 1 5 6
M  V30 43 1 36 37
M  V30 44 9 2 1
M  V30 45 9 3 1
M  V30 46 9 4 1
M  V30 47 9 7 1
M  V30 END BOND
M  V30 END CTAB
M  END
