
     RDKit          3D

  0  0  0  0  0  0  0  0  0  0999 V3000
M  V30 BEGIN CTAB
M  V30 COUNTS 48 53 0 0 0
M  V30 BEGIN ATOM
M  V30 1 Fe 0.190890 0.576880 -0.789680 0 CHG=1 VAL=6
M  V30 2 N 0.547650 -1.715620 -0.248320 0
M  V30 3 N -0.410020 0.339540 1.440590 0
M  V30 4 N 4.072520 -0.736130 0.103770 0
M  V30 5 N 2.215490 0.437810 -0.074430 0
M  V30 6 N -3.026810 -2.136870 -1.014410 0
M  V30 7 N -1.772910 -0.327840 -0.916830 0
M  V30 8 C 0.401660 -1.951750 1.206580 0
M  V30 9 H 1.404750 -1.932230 1.647040 0
M  V30 10 H -0.004000 -2.954500 1.397540 0
M  V30 11 C -0.419170 -0.906510 1.939070 0
M  V30 12 C -1.077760 -1.219510 3.128190 0
M  V30 13 H -1.075350 -2.239490 3.501270 0
M  V30 14 C -1.728150 -0.202640 3.828220 0
M  V30 15 H -2.246950 -0.421240 4.756740 0
M  V30 16 C -1.702730 1.093710 3.314980 0
M  V30 17 H -2.193640 1.915510 3.825020 0
M  V30 18 C -1.038560 1.316900 2.110950 0
M  V30 19 H -1.007630 2.297630 1.649410 0
M  V30 20 C 1.940100 -1.930030 -0.707640 0
M  V30 21 H 1.929410 -1.908760 -1.800900 0
M  V30 22 H 2.347180 -2.895200 -0.374270 0
M  V30 23 C 2.753730 -0.768530 -0.214120 0
M  V30 24 C 4.378640 0.571690 0.448150 0
M  V30 25 H 5.377650 0.859000 0.738590 0
M  V30 26 C 3.215690 1.285980 0.336560 0
M  V30 27 H 3.028820 2.332990 0.520740 0
M  V30 28 C 5.029360 -1.836620 0.014090 0
M  V30 29 H 4.564170 -2.765370 0.351910 0
M  V30 30 H 5.879310 -1.618370 0.662480 0
M  V30 31 H 5.382350 -1.959510 -1.014020 0
M  V30 32 C -0.467730 -2.414880 -1.065890 0
M  V30 33 H -0.588190 -3.465040 -0.764430 0
M  V30 34 H -0.121630 -2.387690 -2.103400 0
M  V30 35 C -1.758200 -1.652520 -0.983200 0
M  V30 36 C -3.881780 -1.046560 -0.972640 0
M  V30 37 H -4.953850 -1.169620 -0.993760 0
M  V30 38 C -3.087870 0.067820 -0.905070 0
M  V30 39 H -3.364320 1.109610 -0.845510 0
M  V30 40 C -3.436710 -3.531600 -1.158130 0
M  V30 41 H -3.371210 -3.849960 -2.202710 0
M  V30 42 H -4.468170 -3.631940 -0.817000 0
M  V30 43 H -2.803420 -4.173820 -0.541850 0
M  V30 44 O 0.645800 0.020520 -2.490900 0
M  V30 45 H 0.576960 0.681480 -3.198680 0
M  V30 46 N -0.201860 2.447340 -0.797360 0
M  V30 47 C -0.538450 3.599470 -0.754220 0
M  V30 48 S -0.992670 5.125590 -0.673850 0
M  V30 END ATOM
M  V30 BEGIN BOND
M  V30 1 1 45 44
M  V30 2 1 44 1
M  V30 3 1 41 40
M  V30 4 1 34 32
M  V30 5 1 21 20
M  V30 6 1 40 6
M  V30 7 1 40 42
M  V30 8 1 40 43
M  V30 9 1 32 35
M  V30 10 1 32 33
M  V30 11 1 32 2
M  V30 12 1 6 35
M  V30 13 1 6 36
M  V30 14 1 31 28
M  V30 15 1 37 36
M  V30 16 2 35 7
M  V30 17 2 36 38
M  V30 18 1 7 38
M  V30 19 1 38 39
M  V30 20 1 46 1
M  V30 21 2 46 47
M  V30 22 2 47 48
M  V30 23 1 20 22
M  V30 24 1 20 2
M  V30 25 1 20 23
M  V30 26 1 2 8
M  V30 27 2 23 5
M  V30 28 1 23 4
M  V30 29 1 5 26
M  V30 30 1 28 4
M  V30 31 1 28 29
M  V30 32 1 28 30
M  V30 33 1 4 24
M  V30 34 2 26 24
M  V30 35 1 26 27
M  V30 36 1 24 25
M  V30 37 1 8 10
M  V30 38 1 8 9
M  V30 39 1 8 11
M  V30 40 2 3 11
M  V30 41 1 3 18
M  V30 42 1 19 18
M  V30 43 1 11 12
M  V30 44 2 18 16
M  V30 45 1 12 13
M  V30 46 2 12 14
M  V30 47 1 16 17
M  V30 48 1 16 14
M  V30 49 1 14 15
M  V30 50 9 2 1
M  V30 51 9 3 1
M  V30 52 9 5 1
M  V30 53 9 7 1
M  V30 END BOND
M  V30 END CTAB
M  END
