
     RDKit          3D

  0  0  0  0  0  0  0  0  0  0999 V3000
M  V30 BEGIN CTAB
M  V30 COUNTS 46 51 0 0 0
M  V30 BEGIN ATOM
M  V30 1 Fe -0.187040 -0.068100 1.355800 0 CHG=1 VAL=6
M  V30 2 N -0.231040 -1.032210 -0.889720 0
M  V30 3 N 0.315410 1.599970 -0.069170 0
M  V30 4 N -3.862390 -0.553990 -0.630330 0
M  V30 5 N -2.199330 0.148850 0.632770 0
M  V30 6 N 3.381540 -1.514230 -0.371400 0
M  V30 7 N 1.868850 -0.535030 0.895440 0
M  V30 8 C -0.096180 0.030160 -1.906070 0
M  V30 9 H -1.093580 0.240250 -2.309710 0
M  V30 10 H 0.512490 -0.314480 -2.753400 0
M  V30 11 C 0.455340 1.345720 -1.378190 0
M  V30 12 C 1.016590 2.282520 -2.246530 0
M  V30 13 H 1.127260 2.050190 -3.301760 0
M  V30 14 C 1.424240 3.516190 -1.738540 0
M  V30 15 H 1.862670 4.260720 -2.396350 0
M  V30 16 C 1.264780 3.776040 -0.376940 0
M  V30 17 H 1.570060 4.721430 0.058400 0
M  V30 18 C 0.711870 2.783280 0.427430 0
M  V30 19 H 0.580420 2.897530 1.498560 0
M  V30 20 C -1.561000 -1.677510 -0.898370 0
M  V30 21 H -1.507030 -2.539360 -0.227650 0
M  V30 22 H -1.856370 -2.027330 -1.897940 0
M  V30 23 C -2.547270 -0.699570 -0.327950 0
M  V30 24 C -4.367080 0.434610 0.201020 0
M  V30 25 H -5.403460 0.732740 0.156790 0
M  V30 26 C -3.321960 0.863170 0.974820 0
M  V30 27 H -3.293680 1.624640 1.739140 0
M  V30 28 C -4.645260 -1.344850 -1.577130 0
M  V30 29 H -4.051170 -1.557120 -2.468650 0
M  V30 30 H -5.523820 -0.770080 -1.874400 0
M  V30 31 H -4.967160 -2.286070 -1.122000 0
M  V30 32 C 0.897650 -1.982150 -0.853420 0
M  V30 33 H 1.178900 -2.332910 -1.856880 0
M  V30 34 H 0.576180 -2.847970 -0.266820 0
M  V30 35 C 2.054190 -1.342650 -0.140470 0
M  V30 36 C 4.062290 -0.773790 0.582820 0
M  V30 37 H 5.140880 -0.751500 0.614700 0
M  V30 38 C 3.108890 -0.166920 1.356360 0
M  V30 39 H 3.221800 0.503000 2.195000 0
M  V30 40 C 4.000240 -2.383570 -1.369160 0
M  V30 41 H 4.002950 -3.423550 -1.029720 0
M  V30 42 H 5.028600 -2.056800 -1.530770 0
M  V30 43 H 3.460460 -2.311400 -2.316050 0
M  V30 44 O -0.082580 1.058980 2.790890 0
M  V30 45 H -0.203650 0.681460 3.677630 0
M  V30 46 F -0.499390 -1.772480 1.831390 0
M  V30 END ATOM
M  V30 BEGIN BOND
M  V30 1 1 13 12
M  V30 2 1 10 8
M  V30 3 1 29 28
M  V30 4 1 15 14
M  V30 5 1 43 40
M  V30 6 1 9 8
M  V30 7 2 12 14
M  V30 8 1 12 11
M  V30 9 1 8 11
M  V30 10 1 8 2
M  V30 11 1 22 20
M  V30 12 1 30 28
M  V30 13 1 33 32
M  V30 14 1 14 16
M  V30 15 1 28 31
M  V30 16 1 28 4
M  V30 17 1 42 40
M  V30 18 2 11 3
M  V30 19 1 40 41
M  V30 20 1 40 6
M  V30 21 1 20 2
M  V30 22 1 20 23
M  V30 23 1 20 21
M  V30 24 1 2 32
M  V30 25 1 32 34
M  V30 26 1 32 35
M  V30 27 1 4 23
M  V30 28 1 4 24
M  V30 29 1 16 17
M  V30 30 2 16 18
M  V30 31 1 6 35
M  V30 32 1 6 36
M  V30 33 2 23 5
M  V30 34 2 35 7
M  V30 35 1 3 18
M  V30 36 1 25 24
M  V30 37 2 24 26
M  V30 38 1 18 19
M  V30 39 1 36 37
M  V30 40 2 36 38
M  V30 41 1 5 26
M  V30 42 1 7 38
M  V30 43 1 26 27
M  V30 44 1 1 46
M  V30 45 1 1 44
M  V30 46 1 38 39
M  V30 47 1 44 45
M  V30 48 9 2 1
M  V30 49 9 3 1
M  V30 50 9 5 1
M  V30 51 9 7 1
M  V30 END BOND
M  V30 END CTAB
M  END
