
     RDKit          3D

  0  0  0  0  0  0  0  0  0  0999 V3000
M  V30 BEGIN CTAB
M  V30 COUNTS 44 49 0 0 0
M  V30 BEGIN ATOM
M  V30 1 Fe 0.212290 0.254680 -0.873330 0 CHG=1 VAL=6
M  V30 2 N 0.657950 -1.848740 -0.036490 0
M  V30 3 N -1.758850 -0.696050 -0.731520 0
M  V30 4 N 2.303850 0.295240 -0.310210 0
M  V30 5 N -1.306090 0.667660 3.236130 0
M  V30 6 H -1.842760 1.097980 3.977530 0
M  V30 7 N -0.209270 0.431630 1.351950 0
M  V30 8 C -0.375700 -2.682050 -0.689850 0
M  V30 9 H -0.391950 -3.702900 -0.284660 0
M  V30 10 H -0.118380 -2.731690 -1.752220 0
M  V30 11 C -1.740500 -2.034580 -0.587240 0
M  V30 12 C -2.917230 -2.760500 -0.419460 0
M  V30 13 H -2.878210 -3.838400 -0.297980 0
M  V30 14 C -4.136300 -2.079370 -0.416260 0
M  V30 15 H -5.066650 -2.624980 -0.290950 0
M  V30 16 C -4.143340 -0.692950 -0.571560 0
M  V30 17 H -5.068990 -0.127730 -0.574960 0
M  V30 18 C -2.924640 -0.035620 -0.721300 0
M  V30 19 H -2.861240 1.041990 -0.834270 0
M  V30 20 C 2.025360 -2.097170 -0.551870 0
M  V30 21 H 1.948740 -2.182870 -1.639410 0
M  V30 22 H 2.455210 -3.025430 -0.152140 0
M  V30 23 C 2.908980 -0.906670 -0.239570 0
M  V30 24 C 4.262650 -1.015950 0.067990 0
M  V30 25 H 4.728590 -1.994300 0.130440 0
M  V30 26 C 5.001150 0.149070 0.288410 0
M  V30 27 H 6.058850 0.087880 0.525870 0
M  V30 28 C 4.364490 1.387910 0.207040 0
M  V30 29 H 4.904060 2.313710 0.374060 0
M  V30 30 C 3.004960 1.416710 -0.093030 0
M  V30 31 H 2.444870 2.343200 -0.170420 0
M  V30 32 C 0.610750 -1.909070 1.453700 0
M  V30 33 H 1.642060 -1.849520 1.817330 0
M  V30 34 H 0.211510 -2.874690 1.788050 0
M  V30 35 C -0.173120 -0.768330 2.031870 0
M  V30 36 C -0.856650 -0.640010 3.212870 0
M  V30 37 H -1.049830 -1.329350 4.020330 0
M  V30 38 C -0.901400 1.278200 2.095640 0
M  V30 39 H -1.142500 2.299780 1.837690 0
M  V30 40 O 0.547380 -0.451830 -2.537540 0
M  V30 41 H 0.434130 0.125510 -3.310130 0
M  V30 42 N -0.267530 2.118140 -1.101490 0
M  V30 43 C -0.916930 3.071050 -0.770170 0
M  V30 44 S -1.800110 4.319090 -0.299950 0
M  V30 END ATOM
M  V30 BEGIN BOND
M  V30 1 1 41 40
M  V30 2 1 40 1
M  V30 3 1 10 8
M  V30 4 1 21 20
M  V30 5 1 42 1
M  V30 6 2 42 43
M  V30 7 1 19 18
M  V30 8 2 43 44
M  V30 9 2 3 18
M  V30 10 1 3 11
M  V30 11 1 18 16
M  V30 12 1 8 11
M  V30 13 1 8 9
M  V30 14 1 8 2
M  V30 15 2 11 12
M  V30 16 1 17 16
M  V30 17 2 16 14
M  V30 18 1 20 23
M  V30 19 1 20 22
M  V30 20 1 20 2
M  V30 21 1 12 14
M  V30 22 1 12 13
M  V30 23 1 14 15
M  V30 24 2 4 23
M  V30 25 1 4 30
M  V30 26 1 23 24
M  V30 27 1 31 30
M  V30 28 2 30 28
M  V30 29 1 2 32
M  V30 30 1 24 25
M  V30 31 2 24 26
M  V30 32 1 28 26
M  V30 33 1 28 29
M  V30 34 1 26 27
M  V30 35 1 7 35
M  V30 36 2 7 38
M  V30 37 1 32 34
M  V30 38 1 32 33
M  V30 39 1 32 35
M  V30 40 1 39 38
M  V30 41 2 35 36
M  V30 42 1 38 5
M  V30 43 1 36 5
M  V30 44 1 36 37
M  V30 45 1 5 6
M  V30 46 9 2 1
M  V30 47 9 3 1
M  V30 48 9 4 1
M  V30 49 9 7 1
M  V30 END BOND
M  V30 END CTAB
M  END
