
     RDKit          3D

  0  0  0  0  0  0  0  0  0  0999 V3000
M  V30 BEGIN CTAB
M  V30 COUNTS 46 51 0 0 0
M  V30 BEGIN ATOM
M  V30 1 Fe 0.177290 -0.193260 -1.034300 0 CHG=1 VAL=6
M  V30 2 N 0.152180 -0.015050 1.421590 0
M  V30 3 N -0.711480 1.790680 -0.588370 0
M  V30 4 N 3.744890 0.696640 0.987730 0
M  V30 5 N 2.064160 0.561400 -0.428650 0
M  V30 6 N -3.255580 -1.422020 1.083180 0
M  V30 7 N -1.773090 -0.798260 -0.419420 0
M  V30 8 C -0.207610 1.379830 1.768010 0
M  V30 9 H 0.725300 1.925400 1.949370 0
M  V30 10 H -0.775650 1.412680 2.707760 0
M  V30 11 C -0.949660 2.140590 0.685050 0
M  V30 12 C -1.770530 3.222410 1.001030 0
M  V30 13 H -1.956100 3.481300 2.039210 0
M  V30 14 C -2.337720 3.966070 -0.035000 0
M  V30 15 H -2.979230 4.813380 0.187850 0
M  V30 16 C -2.071720 3.603920 -1.355440 0
M  V30 17 H -2.492380 4.155020 -2.189540 0
M  V30 18 C -1.257790 2.498580 -1.589830 0
M  V30 19 H -1.029600 2.135790 -2.586640 0
M  V30 20 C 1.542200 -0.334430 1.814740 0
M  V30 21 H 1.673300 -1.418810 1.738350 0
M  V30 22 H 1.767560 -0.032210 2.847790 0
M  V30 23 C 2.451890 0.327280 0.821530 0
M  V30 24 C 4.195950 1.178920 -0.232140 0
M  V30 25 H 5.206620 1.536130 -0.357690 0
M  V30 26 C 3.141610 1.091720 -1.099780 0
M  V30 27 H 3.075220 1.365890 -2.141260 0
M  V30 28 C 4.559840 0.529910 2.189340 0
M  V30 29 H 3.967040 0.758770 3.077780 0
M  V30 30 H 5.400390 1.223970 2.144060 0
M  V30 31 H 4.939720 -0.493590 2.257690 0
M  V30 32 C -0.844880 -1.011470 1.862470 0
M  V30 33 H -1.206130 -0.812480 2.881820 0
M  V30 34 H -0.357840 -1.992890 1.862200 0
M  V30 35 C -1.968490 -1.050170 0.868770 0
M  V30 36 C -3.898700 -1.404830 -0.145050 0
M  V30 37 H -4.941090 -1.668210 -0.239240 0
M  V30 38 C -2.967010 -1.010220 -1.066920 0
M  V30 39 H -3.063700 -0.862800 -2.131460 0
M  V30 40 C -3.846520 -1.859200 2.345890 0
M  V30 41 H -3.577000 -2.897620 2.559840 0
M  V30 42 H -4.932010 -1.778280 2.272750 0
M  V30 43 H -3.504540 -1.218130 3.161710 0
M  V30 44 O 0.069440 0.105650 -2.825430 0
M  V30 45 H 0.328720 -0.622980 -3.414720 0
M  V30 46 Br 0.982670 -2.575370 -0.872030 0
M  V30 END ATOM
M  V30 BEGIN BOND
M  V30 1 1 45 44
M  V30 2 1 44 1
M  V30 3 1 19 18
M  V30 4 1 17 16
M  V30 5 1 27 26
M  V30 6 1 39 38
M  V30 7 1 18 16
M  V30 8 2 18 3
M  V30 9 2 16 14
M  V30 10 1 26 5
M  V30 11 2 26 24
M  V30 12 1 38 7
M  V30 13 2 38 36
M  V30 14 1 1 46
M  V30 15 1 3 11
M  V30 16 2 5 23
M  V30 17 2 7 35
M  V30 18 1 25 24
M  V30 19 1 37 36
M  V30 20 1 24 4
M  V30 21 1 36 6
M  V30 22 1 14 15
M  V30 23 1 14 12
M  V30 24 2 11 12
M  V30 25 1 11 8
M  V30 26 1 23 4
M  V30 27 1 23 20
M  V30 28 1 35 6
M  V30 29 1 35 32
M  V30 30 1 4 28
M  V30 31 1 12 13
M  V30 32 1 6 40
M  V30 33 1 2 8
M  V30 34 1 2 20
M  V30 35 1 2 32
M  V30 36 1 21 20
M  V30 37 1 8 9
M  V30 38 1 8 10
M  V30 39 1 20 22
M  V30 40 1 34 32
M  V30 41 1 32 33
M  V30 42 1 30 28
M  V30 43 1 28 31
M  V30 44 1 28 29
M  V30 45 1 42 40
M  V30 46 1 40 41
M  V30 47 1 40 43
M  V30 48 9 2 1
M  V30 49 9 3 1
M  V30 50 9 5 1
M  V30 51 9 7 1
M  V30 END BOND
M  V30 END CTAB
M  END
