
     RDKit          3D

  0  0  0  0  0  0  0  0  0  0999 V3000
M  V30 BEGIN CTAB
M  V30 COUNTS 42 47 0 0 0
M  V30 BEGIN ATOM
M  V30 1 Fe 0.146190 0.470170 -0.635540 0 CHG=1 VAL=6
M  V30 2 N 0.125130 -1.824470 -0.471740 0
M  V30 3 N -1.986330 -0.040470 -0.652390 0
M  V30 4 N 2.209800 -0.086470 -0.231050 0
M  V30 5 N -1.082950 0.036200 3.531460 0
M  V30 6 H -1.457580 0.350010 4.416930 0
M  V30 7 N -0.192760 0.096210 1.531390 0
M  V30 8 C -1.065570 -2.192990 -1.269120 0
M  V30 9 H -1.301600 -3.261600 -1.176420 0
M  V30 10 H -0.825800 -1.978470 -2.315090 0
M  V30 11 C -2.257050 -1.337190 -0.896480 0
M  V30 12 C -3.562040 -1.822380 -0.870440 0
M  V30 13 H -3.755140 -2.873010 -1.062830 0
M  V30 14 C -4.606960 -0.935510 -0.602240 0
M  V30 15 H -5.632970 -1.290220 -0.581520 0
M  V30 16 C -4.315880 0.406990 -0.360550 0
M  V30 17 H -5.099230 1.127630 -0.152260 0
M  V30 18 C -2.984300 0.814910 -0.389110 0
M  V30 19 H -2.685280 1.841340 -0.202390 0
M  V30 20 C 1.403900 -2.186840 -1.127490 0
M  V30 21 H 1.307500 -1.925300 -2.185150 0
M  V30 22 H 1.618110 -3.260880 -1.046500 0
M  V30 23 C 2.529150 -1.358540 -0.543610 0
M  V30 24 C 3.821950 -1.844190 -0.367560 0
M  V30 25 H 4.053510 -2.875030 -0.616380 0
M  V30 26 C 4.805230 -0.983610 0.126220 0
M  V30 27 H 5.821320 -1.339310 0.267380 0
M  V30 28 C 4.464870 0.332010 0.440130 0
M  V30 29 H 5.199470 1.030040 0.826470 0
M  V30 30 C 3.147690 0.742900 0.249670 0
M  V30 31 H 2.813400 1.750800 0.472690 0
M  V30 32 C 0.065740 -2.303590 0.939960 0
M  V30 33 H 1.076030 -2.614410 1.226510 0
M  V30 34 H -0.572680 -3.192180 1.016560 0
M  V30 35 C -0.395360 -1.223840 1.876100 0
M  V30 36 C -0.955010 -1.280350 3.125990 0
M  V30 37 H -1.254700 -2.106510 3.752260 0
M  V30 38 C -0.618400 0.834980 2.541160 0
M  V30 39 H -0.617160 1.914750 2.566000 0
M  V30 40 O 0.314410 0.264380 -2.447170 0
M  V30 41 H 0.358790 1.067220 -2.992760 0
M  V30 42 Br 0.121700 2.915770 -0.265760 0
M  V30 END ATOM
M  V30 BEGIN BOND
M  V30 1 1 41 40
M  V30 2 1 40 1
M  V30 3 1 10 8
M  V30 4 1 21 20
M  V30 5 1 8 9
M  V30 6 1 8 11
M  V30 7 1 8 2
M  V30 8 1 20 22
M  V30 9 1 20 23
M  V30 10 1 20 2
M  V30 11 1 13 12
M  V30 12 1 11 12
M  V30 13 2 11 3
M  V30 14 2 12 14
M  V30 15 1 3 18
M  V30 16 1 1 42
M  V30 17 1 25 24
M  V30 18 1 14 15
M  V30 19 1 14 16
M  V30 20 1 23 24
M  V30 21 2 23 4
M  V30 22 1 2 32
M  V30 23 2 18 16
M  V30 24 1 18 19
M  V30 25 2 24 26
M  V30 26 1 16 17
M  V30 27 1 4 30
M  V30 28 1 26 27
M  V30 29 1 26 28
M  V30 30 2 30 28
M  V30 31 1 30 31
M  V30 32 1 28 29
M  V30 33 1 32 34
M  V30 34 1 32 33
M  V30 35 1 32 35
M  V30 36 1 7 35
M  V30 37 2 7 38
M  V30 38 2 35 36
M  V30 39 1 38 39
M  V30 40 1 38 5
M  V30 41 1 36 5
M  V30 42 1 36 37
M  V30 43 1 5 6
M  V30 44 9 2 1
M  V30 45 9 3 1
M  V30 46 9 4 1
M  V30 47 9 7 1
M  V30 END BOND
M  V30 END CTAB
M  END
