
     RDKit          3D

  0  0  0  0  0  0  0  0  0  0999 V3000
M  V30 BEGIN CTAB
M  V30 COUNTS 46 51 0 0 0
M  V30 BEGIN ATOM
M  V30 1 Fe -0.195540 -0.172280 1.202630 0 CHG=1 VAL=6
M  V30 2 N -0.228950 -0.631340 -1.209580 0
M  V30 3 N 0.448220 1.714750 0.220590 0
M  V30 4 N -3.866620 -0.165470 -0.834900 0
M  V30 5 N -2.165070 0.235280 0.504670 0
M  V30 6 N 3.323890 -1.520760 -0.693720 0
M  V30 7 N 1.815050 -0.687380 0.675640 0
M  V30 8 C -0.023950 0.646270 -1.929140 0
M  V30 9 H -1.009210 1.018000 -2.232660 0
M  V30 10 H 0.545340 0.484220 -2.854590 0
M  V30 11 C 0.622430 1.747990 -1.109290 0
M  V30 12 C 1.292360 2.801960 -1.729910 0
M  V30 13 H 1.429070 2.801950 -2.807270 0
M  V30 14 C 1.772690 3.852550 -0.947170 0
M  V30 15 H 2.296230 4.684070 -1.409380 0
M  V30 16 C 1.573620 3.816520 0.432970 0
M  V30 17 H 1.930910 4.612250 1.077590 0
M  V30 18 C 0.912340 2.720210 0.980200 0
M  V30 19 H 0.745880 2.604700 2.046040 0
M  V30 20 C -1.583750 -1.180850 -1.435360 0
M  V30 21 H -1.595940 -2.208450 -1.058860 0
M  V30 22 H -1.857700 -1.200060 -2.500210 0
M  V30 23 C -2.542580 -0.362070 -0.621120 0
M  V30 24 C -4.347390 0.588180 0.225610 0
M  V30 25 H -5.385690 0.876360 0.286840 0
M  V30 26 C -3.279720 0.831620 1.046310 0
M  V30 27 H -3.228270 1.384030 1.971820 0
M  V30 28 C -4.675740 -0.721350 -1.917370 0
M  V30 29 H -4.116030 -0.693340 -2.854940 0
M  V30 30 H -5.575660 -0.115180 -2.031710 0
M  V30 31 H -4.961440 -1.753360 -1.693960 0
M  V30 32 C 0.859840 -1.608730 -1.410410 0
M  V30 33 H 1.171790 -1.670010 -2.463080 0
M  V30 34 H 0.482300 -2.592210 -1.110980 0
M  V30 35 C 2.005850 -1.255600 -0.508090 0
M  V30 36 C 3.992440 -1.097090 0.444600 0
M  V30 37 H 5.061940 -1.203740 0.542710 0
M  V30 38 C 3.043090 -0.576780 1.282540 0
M  V30 39 H 3.149990 -0.134410 2.260980 0
M  V30 40 C 3.932240 -2.212490 -1.827720 0
M  V30 41 H 3.795690 -3.294310 -1.739590 0
M  V30 42 H 4.999320 -1.986120 -1.846300 0
M  V30 43 H 3.487010 -1.863930 -2.762440 0
M  V30 44 O -0.090850 0.608580 2.844930 0
M  V30 45 H -0.259710 0.040000 3.615410 0
M  V30 46 Cl -0.700190 -2.396330 1.590470 0
M  V30 END ATOM
M  V30 BEGIN BOND
M  V30 1 1 29 28
M  V30 2 1 10 8
M  V30 3 1 13 12
M  V30 4 1 43 40
M  V30 5 1 22 20
M  V30 6 1 33 32
M  V30 7 1 9 8
M  V30 8 1 30 28
M  V30 9 1 8 2
M  V30 10 1 8 11
M  V30 11 1 28 31
M  V30 12 1 28 4
M  V30 13 1 42 40
M  V30 14 1 40 41
M  V30 15 1 40 6
M  V30 16 1 12 11
M  V30 17 2 12 14
M  V30 18 1 20 2
M  V30 19 1 20 21
M  V30 20 1 20 23
M  V30 21 1 32 2
M  V30 22 1 32 34
M  V30 23 1 32 35
M  V30 24 1 15 14
M  V30 25 2 11 3
M  V30 26 1 14 16
M  V30 27 1 4 23
M  V30 28 1 4 24
M  V30 29 1 6 35
M  V30 30 1 6 36
M  V30 31 2 23 5
M  V30 32 2 35 7
M  V30 33 1 3 18
M  V30 34 1 24 25
M  V30 35 2 24 26
M  V30 36 2 16 18
M  V30 37 1 16 17
M  V30 38 1 36 37
M  V30 39 2 36 38
M  V30 40 1 5 26
M  V30 41 1 7 38
M  V30 42 1 18 19
M  V30 43 1 26 27
M  V30 44 1 1 46
M  V30 45 1 1 44
M  V30 46 1 38 39
M  V30 47 1 44 45
M  V30 48 9 2 1
M  V30 49 9 3 1
M  V30 50 9 5 1
M  V30 51 9 7 1
M  V30 END BOND
M  V30 END CTAB
M  END
