
     RDKit          3D

  0  0  0  0  0  0  0  0  0  0999 V3000
M  V30 BEGIN CTAB
M  V30 COUNTS 52 54 0 0 0
M  V30 BEGIN ATOM
M  V30 1 Fe 0.227380 -0.016960 -0.518420 0 CHG=1 RAD=2 VAL=5
M  V30 2 S 1.395400 -1.583700 -2.112600 0 RAD=2 VAL=1
M  V30 3 C -0.974200 -3.229000 4.257900 0
M  V30 4 C -0.474000 -2.752900 2.934400 0
M  V30 5 C -0.551400 -1.539100 2.299500 0
M  V30 6 N 0.228100 -3.563300 2.053200 0
M  V30 7 C 0.540800 -2.833800 0.950000 0
M  V30 8 N 0.081900 -1.600600 1.071200 0
M  V30 9 H -1.678700 -4.064300 4.154100 0
M  V30 10 H -1.495300 -2.415500 4.770200 0
M  V30 11 H -0.156100 -3.562800 4.909000 0
M  V30 12 H -1.009900 -0.622400 2.636500 0
M  V30 13 H 0.471600 -4.532000 2.204100 0
M  V30 14 H 1.082500 -3.203600 0.091100 0
M  V30 15 C -0.378700 4.372400 3.331200 0
M  V30 16 C -0.665500 3.251500 2.388600 0
M  V30 17 C 0.036700 2.122300 2.053600 0
M  V30 18 N -1.818700 3.182100 1.621200 0
M  V30 19 C -1.762900 2.056000 0.862500 0
M  V30 20 N -0.649200 1.386400 1.102700 0
M  V30 21 H -1.140100 4.453900 4.117700 0
M  V30 22 H -0.330700 5.337500 2.811100 0
M  V30 23 H 0.587600 4.209900 3.816500 0
M  V30 24 H 0.994000 1.798600 2.435900 0
M  V30 25 H -2.525400 3.899800 1.547300 0
M  V30 26 H -2.509300 1.786100 0.133100 0
M  V30 27 C -5.405400 -1.441600 -1.347600 0
M  V30 28 C -3.980700 -1.018900 -1.488100 0
M  V30 29 C -2.938500 -0.965600 -0.596700 0
M  V30 30 N -3.439000 -0.570500 -2.685100 0
M  V30 31 C -2.130900 -0.269100 -2.480600 0
M  V30 32 N -1.799600 -0.499500 -1.224500 0
M  V30 33 N 2.349700 0.401700 0.141200 0
M  V30 34 C 3.278400 -0.462700 -0.539300 0 CFG=2
M  V30 35 C 4.865300 0.242500 -0.485500 0
M  V30 36 O 4.795200 1.453400 -0.675400 0
M  V30 37 C 2.934800 -0.594000 -2.018200 0
M  V30 38 O 5.698300 -0.633600 -0.278000 0 CHG=-1 VAL=1
M  V30 39 H -5.600000 -1.748600 -0.316200 0
M  V30 40 H -5.646800 -2.291200 -1.999400 0
M  V30 41 H -6.100700 -0.627700 -1.590700 0
M  V30 42 H -2.923300 -1.239200 0.448400 0
M  V30 43 H -3.936400 -0.461800 -3.557400 0
M  V30 44 H -1.456400 0.107600 -3.234600 0
M  V30 45 H 2.469100 0.361600 1.150500 0
M  V30 46 H 2.505800 1.365400 -0.166600 0
M  V30 47 H 3.357500 -1.425100 -0.034700 0
M  V30 48 H 3.743500 -1.094400 -2.556500 0
M  V30 49 H 2.781500 0.405100 -2.437500 0
M  V30 50 N 0.324500 1.653900 -1.736400 0
M  V30 51 N -0.611500 2.393200 -1.892500 0 CHG=1 VAL=4
M  V30 52 N -1.528200 3.096000 -2.044400 0 CHG=-1 VAL=2
M  V30 END ATOM
M  V30 BEGIN BOND
M  V30 1 1 43 30
M  V30 2 1 44 31
M  V30 3 1 30 31
M  V30 4 1 30 28
M  V30 5 1 48 37
M  V30 6 2 31 32
M  V30 7 1 49 37
M  V30 8 1 2 37
M  V30 9 2 52 51
M  V30 10 1 37 34
M  V30 11 1 40 27
M  V30 12 2 51 50
M  V30 13 1 41 27
M  V30 14 1 28 27
M  V30 15 2 28 29
M  V30 16 1 27 39
M  V30 17 1 32 29
M  V30 18 2 36 35
M  V30 19 1 29 42
M  V30 20 1 34 35
M  V30 21 1 34 47 CFG=1
M  V30 22 1 34 33
M  V30 23 1 35 38
M  V30 24 1 46 33
M  V30 25 1 14 7
M  V30 26 1 26 19
M  V30 27 1 33 45
M  V30 28 2 19 20
M  V30 29 1 19 18
M  V30 30 2 7 8
M  V30 31 1 7 6
M  V30 32 1 8 5
M  V30 33 1 20 17
M  V30 34 1 25 18
M  V30 35 1 18 16
M  V30 36 1 6 13
M  V30 37 1 6 4
M  V30 38 2 17 16
M  V30 39 1 17 24
M  V30 40 1 5 12
M  V30 41 2 5 4
M  V30 42 1 16 15
M  V30 43 1 22 15
M  V30 44 1 4 3
M  V30 45 1 15 23
M  V30 46 1 15 21
M  V30 47 1 9 3
M  V30 48 1 3 10
M  V30 49 1 3 11
M  V30 50 1 1 50
M  V30 51 9 8 1
M  V30 52 9 20 1
M  V30 53 9 32 1
M  V30 54 9 33 1
M  V30 END BOND
M  V30 END CTAB
M  END
