
     RDKit          3D

  0  0  0  0  0  0  0  0  0  0999 V3000
M  V30 BEGIN CTAB
M  V30 COUNTS 50 53 0 0 0
M  V30 BEGIN ATOM
M  V30 1 Fe 0.094880 -0.488100 -0.388270 0 CHG=1 VAL=6
M  V30 2 S 0.420760 -2.560670 0.976790 0
M  V30 3 C -2.761850 3.022570 3.444620 0
M  V30 4 C -1.903460 1.967230 2.829650 0
M  V30 5 C -1.489160 1.747360 1.539810 0
M  V30 6 N -1.330050 0.935030 3.558410 0
M  V30 7 C -0.614640 0.151330 2.707180 0
M  V30 8 N -0.688710 0.620280 1.475060 0
M  V30 9 H -3.648660 2.597400 3.932070 0
M  V30 10 H -3.107030 3.715120 2.671920 0
M  V30 11 H -2.217290 3.606960 4.197540 0
M  V30 12 H -1.711850 2.321090 0.652730 0
M  V30 13 H -1.432240 0.781650 4.551600 0
M  V30 14 H -0.093190 -0.753050 2.986540 0
M  V30 15 C 1.510200 5.155640 -1.406200 0
M  V30 16 C 1.016030 3.752570 -1.529440 0
M  V30 17 C 0.747310 2.781500 -0.598600 0
M  V30 18 N 0.725250 3.153930 -2.747010 0
M  V30 19 C 0.313120 1.879660 -2.515090 0
M  V30 20 N 0.310010 1.624750 -1.220040 0
M  V30 21 H 0.791250 5.881100 -1.808650 0
M  V30 22 H 2.461530 5.301740 -1.933550 0
M  V30 23 H 1.674670 5.398810 -0.352820 0
M  V30 24 H 0.830980 2.840580 0.476490 0
M  V30 25 H 0.841570 3.575810 -3.657370 0
M  V30 26 H 0.085450 1.155140 -3.282400 0
M  V30 27 C -5.648590 -1.610860 -0.453330 0
M  V30 28 C -4.190760 -1.507210 -0.756440 0
M  V30 29 C -3.197640 -0.704780 -0.257140 0
M  V30 30 N -3.553280 -2.305120 -1.697450 0
M  V30 31 C -2.238240 -1.970270 -1.728900 0
M  V30 32 N -1.993040 -0.998110 -0.868530 0
M  V30 33 N 2.298770 -0.183870 0.167700 0
M  V30 34 C 2.731470 -1.188440 1.086350 0
M  V30 35 C 4.510930 -1.297440 1.056920 0
M  V30 36 O 4.905280 -1.204500 -0.096060 0
M  V30 37 C 2.234580 -2.565730 0.681900 0
M  V30 38 O 4.909350 -1.447930 2.203120 0 CHG=-1 VAL=1
M  V30 39 H -5.917370 -0.885650 0.319960 0
M  V30 40 H -5.920420 -2.607890 -0.082950 0
M  V30 41 H -6.268940 -1.403090 -1.335090 0
M  V30 42 H -3.267190 0.055200 0.506290 0
M  V30 43 H -3.986230 -3.029540 -2.252040 0
M  V30 44 H -1.489130 -2.428990 -2.357900 0
M  V30 45 H 2.495500 0.762170 0.483460 0
M  V30 46 H 2.739460 -0.328260 -0.744640 0
M  V30 47 H 2.488770 -0.922490 2.114380 0
M  V30 48 H 2.710410 -3.342060 1.285890 0
M  V30 49 H 2.454370 -2.734350 -0.376260 0
M  V30 50 Cl 0.898300 -1.310800 -2.568820 0
M  V30 END ATOM
M  V30 BEGIN BOND
M  V30 1 1 25 18
M  V30 2 1 26 19
M  V30 3 1 18 19
M  V30 4 1 18 16
M  V30 5 1 50 1
M  V30 6 2 19 20
M  V30 7 1 44 31
M  V30 8 1 43 30
M  V30 9 1 22 15
M  V30 10 1 21 15
M  V30 11 1 31 30
M  V30 12 2 31 32
M  V30 13 1 30 28
M  V30 14 1 16 15
M  V30 15 2 16 17
M  V30 16 1 15 23
M  V30 17 1 41 27
M  V30 18 1 20 17
M  V30 19 1 32 29
M  V30 20 1 28 27
M  V30 21 2 28 29
M  V30 22 1 46 33
M  V30 23 1 17 24
M  V30 24 1 27 40
M  V30 25 1 27 39
M  V30 26 1 1 2
M  V30 27 1 49 37
M  V30 28 1 29 42
M  V30 29 2 36 35
M  V30 30 1 33 45
M  V30 31 1 33 34
M  V30 32 1 12 5
M  V30 33 1 37 2
M  V30 34 1 37 34
M  V30 35 1 37 48
M  V30 36 1 35 34
M  V30 37 1 35 38
M  V30 38 1 34 47
M  V30 39 1 8 5
M  V30 40 2 8 7
M  V30 41 2 5 4
M  V30 42 1 10 3
M  V30 43 1 7 14
M  V30 44 1 7 6
M  V30 45 1 4 3
M  V30 46 1 4 6
M  V30 47 1 3 9
M  V30 48 1 3 11
M  V30 49 1 6 13
M  V30 50 9 8 1
M  V30 51 9 20 1
M  V30 52 9 32 1
M  V30 53 9 33 1
M  V30 END BOND
M  V30 END CTAB
M  END
