
     RDKit          3D

  0  0  0  0  0  0  0  0  0  0999 V3000
M  V30 BEGIN CTAB
M  V30 COUNTS 52 55 0 0 0
M  V30 BEGIN ATOM
M  V30 1 Fe -0.150130 0.137030 -0.376210 0 CHG=1 VAL=6
M  V30 2 S -1.090290 0.844110 -2.564560 0
M  V30 3 C 0.705680 4.907160 2.847600 0
M  V30 4 C 0.341300 3.951780 1.759930 0
M  V30 5 C 0.374490 2.582720 1.685450 0
M  V30 6 N -0.145620 4.360180 0.524750 0
M  V30 7 C -0.383800 3.259720 -0.233170 0
M  V30 8 N -0.078010 2.166410 0.445290 0
M  V30 9 H 1.503300 5.595170 2.538980 0
M  V30 10 H 1.061960 4.353250 3.720280 0
M  V30 11 H -0.152770 5.513060 3.164520 0
M  V30 12 H 0.678050 1.852390 2.419510 0
M  V30 13 H -0.304490 5.315380 0.236640 0
M  V30 14 H -0.768630 3.266750 -1.242890 0
M  V30 15 C -0.920800 -3.795390 3.252520 0
M  V30 16 C -0.202880 -2.593030 2.738600 0
M  V30 17 C -0.571220 -1.278860 2.602770 0
M  V30 18 N 1.088800 -2.646330 2.240450 0
M  V30 19 C 1.418750 -1.408950 1.794770 0
M  V30 20 N 0.437320 -0.544130 1.996110 0
M  V30 21 H -0.407340 -4.245060 4.111770 0
M  V30 22 H -1.008920 -4.563580 2.474220 0
M  V30 23 H -1.931180 -3.520710 3.567850 0
M  V30 24 H -1.504110 -0.820630 2.900650 0
M  V30 25 H 1.575910 -3.493280 1.968870 0
M  V30 26 H 2.343880 -1.195730 1.281850 0
M  V30 27 C 5.570840 1.185560 -0.921980 0
M  V30 28 C 4.174300 0.679400 -1.069090 0
M  V30 29 C 3.001590 1.001980 -0.433190 0
M  V30 30 N 3.817430 -0.303050 -1.982190 0
M  V30 31 C 2.484410 -0.534720 -1.870340 0
M  V30 32 N 1.963840 0.241380 -0.937860 0
M  V30 33 N -2.329360 0.034740 0.212560 0
M  V30 34 C -3.145030 0.527840 -0.858100 0
M  V30 35 C -4.804450 -0.108100 -0.658860 0
M  V30 36 O -4.745260 -1.263650 -0.264460 0 CHG=-1 VAL=1
M  V30 37 C -2.692180 0.014000 -2.214980 0
M  V30 38 O -5.594350 0.767050 -0.975990 0
M  V30 39 H 5.608580 1.942730 -0.133970 0
M  V30 40 H 5.937910 1.647860 -1.847270 0
M  V30 41 H 6.270090 0.384750 -0.649380 0
M  V30 42 H 2.828370 1.728480 0.347280 0
M  V30 43 H 4.443140 -0.783310 -2.613310 0
M  V30 44 H 1.938730 -1.263780 -2.448990 0
M  V30 45 H -2.509610 0.515600 1.090200 0
M  V30 46 H -2.500880 -0.964730 0.346110 0
M  V30 47 H -3.247010 1.611050 -0.816390 0
M  V30 48 H -3.427520 0.264580 -2.982840 0
M  V30 49 H -2.566380 -1.071710 -2.168410 0
M  V30 50 N -0.179490 -1.929960 -0.727120 0
M  V30 51 C 0.482910 -2.912960 -0.774140 0
M  V30 52 S 1.448500 -4.230490 -0.801120 0
M  V30 END ATOM
M  V30 BEGIN BOND
M  V30 1 1 48 37
M  V30 2 1 43 30
M  V30 3 1 2 37
M  V30 4 1 2 1
M  V30 5 1 44 31
M  V30 6 1 37 49
M  V30 7 1 37 34
M  V30 8 1 30 31
M  V30 9 1 30 28
M  V30 10 2 31 32
M  V30 11 1 40 27
M  V30 12 1 14 7
M  V30 13 1 28 27
M  V30 14 2 28 29
M  V30 15 2 38 35
M  V30 16 1 32 29
M  V30 17 1 27 41
M  V30 18 1 27 39
M  V30 19 1 34 47
M  V30 20 1 34 35
M  V30 21 1 34 33
M  V30 22 2 52 51
M  V30 23 2 51 50
M  V30 24 1 50 1
M  V30 25 1 35 36
M  V30 26 1 29 42
M  V30 27 2 7 8
M  V30 28 1 7 6
M  V30 29 1 33 46
M  V30 30 1 33 45
M  V30 31 1 13 6
M  V30 32 1 8 5
M  V30 33 1 6 4
M  V30 34 1 26 19
M  V30 35 2 5 4
M  V30 36 1 5 12
M  V30 37 1 4 3
M  V30 38 2 19 20
M  V30 39 1 19 18
M  V30 40 1 25 18
M  V30 41 1 20 17
M  V30 42 1 18 16
M  V30 43 1 22 15
M  V30 44 1 9 3
M  V30 45 2 17 16
M  V30 46 1 17 24
M  V30 47 1 16 15
M  V30 48 1 3 11
M  V30 49 1 3 10
M  V30 50 1 15 23
M  V30 51 1 15 21
M  V30 52 9 8 1
M  V30 53 9 20 1
M  V30 54 9 32 1
M  V30 55 9 33 1
M  V30 END BOND
M  V30 END CTAB
M  END
