
     RDKit          3D

  0  0  0  0  0  0  0  0  0  0999 V3000
M  V30 BEGIN CTAB
M  V30 COUNTS 51 54 0 0 0
M  V30 BEGIN ATOM
M  V30 1 Fe -0.000470 -0.664830 -0.480070 0 CHG=1 VAL=6
M  V30 2 S -0.017420 -2.732460 0.699070 0
M  V30 3 C -2.301680 3.165830 3.469160 0
M  V30 4 C -1.607420 2.028040 2.796840 0
M  V30 5 C -1.435690 1.699660 1.475060 0
M  V30 6 N -0.959740 1.016350 3.493050 0
M  V30 7 C -0.438760 0.138530 2.595450 0
M  V30 8 N -0.706660 0.530640 1.363910 0
M  V30 9 H -3.111930 2.821490 4.124520 0
M  V30 10 H -2.740030 3.827640 2.717180 0
M  V30 11 H -1.611880 3.763320 4.078770 0
M  V30 12 H -1.791030 2.217220 0.596270 0
M  V30 13 H -0.891950 0.937590 4.498050 0
M  V30 14 H 0.090890 -0.768160 2.848750 0
M  V30 15 C 2.565840 4.640400 -1.244320 0
M  V30 16 C 1.854510 3.342550 -1.436590 0
M  V30 17 C 0.955450 2.657060 -0.659930 0
M  V30 18 N 2.027270 2.541660 -2.555740 0
M  V30 19 C 1.260430 1.430450 -2.414380 0
M  V30 20 N 0.590260 1.472230 -1.275100 0
M  V30 21 H 2.324550 5.362800 -2.034850 0
M  V30 22 H 3.655110 4.508060 -1.232930 0
M  V30 23 H 2.275610 5.083430 -0.287570 0
M  V30 24 H 0.560670 2.937710 0.304840 0
M  V30 25 H 2.671290 2.715750 -3.314320 0
M  V30 26 H 1.241080 0.589570 -3.091590 0
M  V30 27 C -5.856910 -0.928290 -0.653140 0
M  V30 28 C -4.397210 -0.856740 -0.955790 0
M  V30 29 C -3.305250 -0.578990 -0.175580 0
M  V30 30 N -3.872630 -1.098900 -2.219780 0
M  V30 31 C -2.523950 -0.970210 -2.160250 0
M  V30 32 N -2.152760 -0.648900 -0.933350 0
M  V30 33 N 1.979820 -0.450890 0.322380 0
M  V30 34 C 2.538410 -1.599720 1.081020 0
M  V30 35 C 4.082830 -1.712420 0.741570 0
M  V30 36 O 4.417260 -1.038070 -0.274980 0
M  V30 37 C 1.836040 -2.881720 0.640070 0
M  V30 38 O 4.729000 -2.470960 1.479280 0 CHG=-1 VAL=1
M  V30 39 H -6.025690 -0.705800 0.403990 0
M  V30 40 H -6.266560 -1.926820 -0.852000 0
M  V30 41 H -6.435150 -0.205920 -1.243780 0
M  V30 42 H -3.268090 -0.343650 0.876450 0
M  V30 43 H -4.402970 -1.352240 -3.041170 0
M  V30 44 H -1.829400 -1.129480 -2.971270 0
M  V30 45 H 2.033670 0.401570 0.878920 0
M  V30 46 H 2.714300 -0.338830 -0.413270 0
M  V30 47 H 2.392610 -1.447470 2.154910 0
M  V30 48 H 2.156130 -3.711660 1.272990 0
M  V30 49 H 2.125970 -3.110790 -0.391540 0
M  V30 50 O 0.374640 -1.230820 -2.240630 0
M  V30 51 H 0.557580 -2.183640 -2.256920 0
M  V30 END ATOM
M  V30 BEGIN BOND
M  V30 1 1 25 18
M  V30 2 1 26 19
M  V30 3 1 43 30
M  V30 4 1 44 31
M  V30 5 1 18 19
M  V30 6 1 18 16
M  V30 7 2 19 20
M  V30 8 1 51 50
M  V30 9 1 50 1
M  V30 10 1 30 31
M  V30 11 1 30 28
M  V30 12 2 31 32
M  V30 13 1 21 15
M  V30 14 1 16 15
M  V30 15 2 16 17
M  V30 16 1 20 17
M  V30 17 1 15 22
M  V30 18 1 15 23
M  V30 19 1 41 27
M  V30 20 1 28 27
M  V30 21 2 28 29
M  V30 22 1 32 29
M  V30 23 1 40 27
M  V30 24 1 17 24
M  V30 25 1 27 39
M  V30 26 1 1 2
M  V30 27 1 46 33
M  V30 28 1 49 37
M  V30 29 2 36 35
M  V30 30 1 29 42
M  V30 31 1 33 45
M  V30 32 1 33 34
M  V30 33 1 12 5
M  V30 34 1 37 2
M  V30 35 1 37 34
M  V30 36 1 37 48
M  V30 37 1 35 34
M  V30 38 1 35 38
M  V30 39 1 34 47
M  V30 40 1 8 5
M  V30 41 2 8 7
M  V30 42 2 5 4
M  V30 43 1 7 14
M  V30 44 1 7 6
M  V30 45 1 10 3
M  V30 46 1 4 3
M  V30 47 1 4 6
M  V30 48 1 3 11
M  V30 49 1 3 9
M  V30 50 1 6 13
M  V30 51 9 8 1
M  V30 52 9 20 1
M  V30 53 9 32 1
M  V30 54 9 33 1
M  V30 END BOND
M  V30 END CTAB
M  END
