
     RDKit          3D

  0  0  0  0  0  0  0  0  0  0999 V3000
M  V30 BEGIN CTAB
M  V30 COUNTS 75 82 0 0 0
M  V30 BEGIN ATOM
M  V30 1 Fe -1.387680 0.322690 -0.512060 0 VAL=5
M  V30 2 S -0.655900 -1.179100 -2.313400 0
M  V30 3 N 0.264700 1.566000 -1.436600 0
M  V30 4 C 1.362300 0.608400 -1.628900 0 CFG=2
M  V30 5 C 2.699300 1.293600 -1.893500 0
M  V30 6 O 2.862000 2.492300 -1.989900 0
M  V30 7 C 0.963400 -0.395200 -2.719700 0
M  V30 8 O 3.684800 0.381100 -1.947500 0
M  V30 9 H 0.573800 2.348100 -0.862500 0
M  V30 10 H -0.005900 1.968300 -2.334400 0
M  V30 11 H 1.490800 0.059700 -0.687800 0
M  V30 12 H 1.747900 -1.147900 -2.814900 0
M  V30 13 H 0.888900 0.127000 -3.682600 0
M  V30 14 C -0.064200 0.290500 2.466800 0
M  V30 15 P -0.065500 -1.535200 2.608000 0
M  V30 16 N 0.440000 1.030700 3.494700 0
M  V30 17 H 0.797300 3.138600 3.762200 0
M  V30 18 C 0.460000 2.345900 3.113100 0
M  V30 19 N -0.378600 1.084600 1.444200 0
M  V30 20 C -0.053800 2.380800 1.833300 0
M  V30 21 H 0.765400 0.652300 4.373800 0
M  V30 22 N -2.557100 -2.723700 2.484300 0
M  V30 23 C -1.658400 -1.932700 1.823600 0
M  V30 24 N -2.189000 -1.512200 0.675400 0
M  V30 25 C -3.696400 -2.804600 1.729900 0
M  V30 26 N 0.972800 -2.497200 0.097600 0
M  V30 27 C -3.465500 -2.046300 0.599600 0
M  V30 28 N 2.456700 -1.735800 1.576400 0
M  V30 29 C 1.170800 -1.939000 1.331900 0
M  V30 30 C 2.210400 -2.619000 -0.481600 0
M  V30 31 C 3.127500 -2.142100 0.438500 0
M  V30 32 H 2.318700 -2.994000 -1.486900 0
M  V30 33 H 0.115200 -2.435800 -0.469000 0
M  V30 34 H -4.555800 -3.383100 2.030100 0
M  V30 35 H -2.398200 -3.161000 3.381700 0
M  V30 36 C -0.178800 3.588400 0.996500 0
M  V30 37 C 0.879500 4.514800 0.979700 0
M  V30 38 H 1.778800 4.309100 1.554100 0
M  V30 39 C 0.798200 5.670500 0.203700 0
M  V30 40 H 1.629100 6.370300 0.191500 0
M  V30 41 C -0.337700 5.913000 -0.571700 0
M  V30 42 H -0.397900 6.808300 -1.184600 0
M  V30 43 C -1.390000 4.993700 -0.564800 0
M  V30 44 H -2.276000 5.171700 -1.168000 0
M  V30 45 C -1.319000 3.840400 0.216200 0
M  V30 46 H -2.127800 3.117100 0.197900 0
M  V30 47 C -4.410100 -1.802400 -0.501700 0
M  V30 48 H -2.984600 -2.179900 -2.073500 0
M  V30 49 C -4.008400 -1.913900 -1.839400 0
M  V30 50 H -4.593200 -1.767600 -3.899900 0
M  V30 51 C -4.921400 -1.686600 -2.867500 0
M  V30 52 H -6.955700 -1.175400 -3.373600 0
M  V30 53 C -6.245600 -1.355800 -2.570700 0
M  V30 54 H -7.679800 -0.982000 -1.001300 0
M  V30 55 C -6.654100 -1.251300 -1.238800 0
M  V30 56 H -6.041500 -1.338900 0.827300 0
M  V30 57 C -5.742400 -1.472200 -0.207500 0
M  V30 58 C 4.577900 -1.985300 0.284200 0
M  V30 59 H 4.765300 -0.706200 1.998300 0
M  V30 60 C 5.298600 -1.177500 1.179200 0
M  V30 61 C 6.668500 -0.979900 1.012800 0
M  V30 62 H 7.208900 -0.348200 1.713300 0
M  V30 63 H 8.415400 -1.433900 -0.174800 0
M  V30 64 C 7.347300 -1.587200 -0.047100 0
M  V30 65 C 6.640500 -2.400300 -0.938400 0
M  V30 66 H 7.158600 -2.886300 -1.761200 0
M  V30 67 H 4.734800 -3.238400 -1.469500 0
M  V30 68 C 5.270300 -2.597800 -0.774100 0
M  V30 69 C 5.023900 0.896900 -2.060600 0
M  V30 70 H 5.155300 1.406700 -3.019500 0
M  V30 71 H 5.225900 1.601300 -1.249400 0
M  V30 72 H 5.675500 0.027900 -1.981300 0
M  V30 73 N -3.130000 1.221100 -0.230300 0
M  V30 74 N -3.833000 1.072300 0.742900 0 CHG=1 VAL=4
M  V30 75 N -4.526800 0.937200 1.659200 0 CHG=-1 VAL=2
M  V30 END ATOM
M  V30 BEGIN BOND
M  V30 1 1 50 51
M  V30 2 1 13 7
M  V30 3 1 52 53
M  V30 4 1 70 69
M  V30 5 1 51 53
M  V30 6 2 51 49
M  V30 7 1 12 7
M  V30 8 1 7 2
M  V30 9 1 7 4
M  V30 10 2 53 55
M  V30 11 1 10 3
M  V30 12 1 48 49
M  V30 13 1 69 72
M  V30 14 1 69 8
M  V30 15 1 69 71
M  V30 16 2 6 5
M  V30 17 1 8 5
M  V30 18 1 5 4
M  V30 19 1 49 47
M  V30 20 1 66 65
M  V30 21 1 4 3
M  V30 22 1 4 11 CFG=1
M  V30 23 1 32 30
M  V30 24 1 67 68
M  V30 25 1 3 9
M  V30 26 1 55 54
M  V30 27 1 55 57
M  V30 28 1 42 41
M  V30 29 1 44 43
M  V30 30 2 65 68
M  V30 31 1 65 64
M  V30 32 1 68 58
M  V30 33 2 41 43
M  V30 34 1 41 39
M  V30 35 1 43 45
M  V30 36 2 47 57
M  V30 37 1 47 27
M  V30 38 1 30 26
M  V30 39 2 30 31
M  V30 40 1 33 26
M  V30 41 2 73 74
M  V30 42 1 57 56
M  V30 43 1 63 64
M  V30 44 2 64 61
M  V30 45 1 26 29
M  V30 46 1 40 39
M  V30 47 1 46 45
M  V30 48 2 39 37
M  V30 49 2 45 36
M  V30 50 1 58 31
M  V30 51 2 58 60
M  V30 52 1 31 28
M  V30 53 1 27 24
M  V30 54 2 27 25
M  V30 55 2 24 23
M  V30 56 2 74 75
M  V30 57 1 37 36
M  V30 58 1 37 38
M  V30 59 1 36 20
M  V30 60 1 61 60
M  V30 61 1 61 62
M  V30 62 1 60 59
M  V30 63 2 29 28
M  V30 64 1 29 15
M  V30 65 1 19 20
M  V30 66 2 19 14
M  V30 67 1 25 34
M  V30 68 1 25 22
M  V30 69 1 23 22
M  V30 70 1 23 15
M  V30 71 2 20 18
M  V30 72 1 14 15
M  V30 73 1 14 16
M  V30 74 1 22 35
M  V30 75 1 18 16
M  V30 76 1 18 17
M  V30 77 1 16 21
M  V30 78 1 1 73
M  V30 79 1 1 2
M  V30 80 9 3 1
M  V30 81 9 19 1
M  V30 82 9 24 1
M  V30 END BOND
M  V30 END CTAB
M  END
