
     RDKit          3D

  0  0  0  0  0  0  0  0  0  0999 V3000
M  V30 BEGIN CTAB
M  V30 COUNTS 50 53 0 0 0
M  V30 BEGIN ATOM
M  V30 1 Fe 0.073840 0.065240 -0.412270 0 CHG=1 VAL=6
M  V30 2 S 0.574120 -0.842780 -2.391110 0
M  V30 3 C -1.118260 -4.104830 3.272660 0
M  V30 4 C -0.825970 -3.319880 2.037260 0
M  V30 5 C -0.709930 -1.972710 1.809370 0
M  V30 6 N -0.588490 -3.905170 0.803390 0
M  V30 7 C -0.335190 -2.929250 -0.103470 0
M  V30 8 N -0.405070 -1.742870 0.477000 0
M  V30 9 H -2.024920 -4.713830 3.166110 0
M  V30 10 H -1.268280 -3.425500 4.116040 0
M  V30 11 H -0.291170 -4.778050 3.530200 0
M  V30 12 H -0.806480 -1.159770 2.509720 0
M  V30 13 H -0.566510 -4.896780 0.610850 0
M  V30 14 H -0.090620 -3.083420 -1.143530 0
M  V30 15 C 0.553040 3.041420 4.403870 0
M  V30 16 C 0.010820 2.279560 3.241400 0
M  V30 17 C 0.613300 1.472550 2.313720 0
M  V30 18 N -1.328220 2.298590 2.875830 0
M  V30 19 C -1.484070 1.532210 1.766980 0
M  V30 20 N -0.324560 1.013300 1.405250 0
M  V30 21 H 0.092910 2.730930 5.350660 0
M  V30 22 H 0.392920 4.120650 4.288760 0
M  V30 23 H 1.630140 2.872960 4.481960 0
M  V30 24 H 1.661900 1.238590 2.222660 0
M  V30 25 H -2.056280 2.831530 3.329540 0
M  V30 26 H -2.420310 1.395720 1.250250 0
M  V30 27 C -5.487690 -0.489190 -1.388380 0
M  V30 28 C -4.058610 -0.058480 -1.395950 0
M  V30 29 C -2.984740 -0.411740 -0.619720 0
M  V30 30 N -3.547540 0.861050 -2.300700 0
M  V30 31 C -2.224520 1.030400 -2.053650 0
M  V30 32 N -1.855750 0.274090 -1.034400 0
M  V30 33 N 1.943620 -0.269840 0.147780 0
M  V30 34 C 2.777060 -1.107930 -0.764040 0
M  V30 35 C 4.302340 -0.819030 -0.453660 0
M  V30 36 O 4.478980 0.181090 0.294640 0 CHG=-1 VAL=1
M  V30 37 C 2.409810 -0.743520 -2.192560 0
M  V30 38 O 5.092770 -1.601330 -1.004090 0
M  V30 39 H -5.652020 -1.214490 -0.586710 0
M  V30 40 H -5.773870 -0.967340 -2.333760 0
M  V30 41 H -6.170050 0.354240 -1.221990 0
M  V30 42 H -2.942260 -1.115940 0.196580 0
M  V30 43 H -4.063570 1.316020 -3.040250 0
M  V30 44 H -1.562500 1.682770 -2.602120 0
M  V30 45 H 1.962470 -0.717760 1.065490 0
M  V30 46 H 2.551110 0.562550 0.266120 0
M  V30 47 H 2.549920 -2.162520 -0.580250 0
M  V30 48 H 2.902450 -1.419970 -2.894210 0
M  V30 49 H 2.712050 0.285680 -2.410830 0
M  V30 50 Br 0.733460 2.380360 -1.165170 0
M  V30 END ATOM
M  V30 BEGIN BOND
M  V30 1 1 43 30
M  V30 2 1 48 37
M  V30 3 1 44 31
M  V30 4 1 49 37
M  V30 5 1 2 37
M  V30 6 1 2 1
M  V30 7 1 40 27
M  V30 8 1 30 31
M  V30 9 1 30 28
M  V30 10 1 37 34
M  V30 11 2 31 32
M  V30 12 1 28 27
M  V30 13 2 28 29
M  V30 14 1 27 41
M  V30 15 1 27 39
M  V30 16 1 50 1
M  V30 17 1 14 7
M  V30 18 1 32 29
M  V30 19 2 38 35
M  V30 20 1 34 47
M  V30 21 1 34 35
M  V30 22 1 34 33
M  V30 23 1 29 42
M  V30 24 1 35 36
M  V30 25 2 7 8
M  V30 26 1 7 6
M  V30 27 1 33 46
M  V30 28 1 33 45
M  V30 29 1 8 5
M  V30 30 1 13 6
M  V30 31 1 6 4
M  V30 32 1 26 19
M  V30 33 2 20 19
M  V30 34 1 20 17
M  V30 35 1 19 18
M  V30 36 2 5 4
M  V30 37 1 5 12
M  V30 38 1 4 3
M  V30 39 1 24 17
M  V30 40 2 17 16
M  V30 41 1 18 16
M  V30 42 1 18 25
M  V30 43 1 9 3
M  V30 44 1 16 15
M  V30 45 1 3 11
M  V30 46 1 3 10
M  V30 47 1 22 15
M  V30 48 1 15 23
M  V30 49 1 15 21
M  V30 50 9 8 1
M  V30 51 9 20 1
M  V30 52 9 32 1
M  V30 53 9 33 1
M  V30 END BOND
M  V30 END CTAB
M  END
