
     RDKit          3D

  0  0  0  0  0  0  0  0  0  0999 V3000
M  V30 BEGIN CTAB
M  V30 COUNTS 50 53 0 0 0
M  V30 BEGIN ATOM
M  V30 1 Fe 0.099890 -0.467060 -0.555510 0 CHG=1 VAL=6
M  V30 2 S 0.441630 -2.847600 0.242000 0
M  V30 3 C -2.515240 2.071280 4.058190 0
M  V30 4 C -1.675740 1.182160 3.201790 0
M  V30 5 C -1.368180 1.207360 1.864450 0
M  V30 6 N -1.006820 0.068280 3.691420 0
M  V30 7 C -0.343380 -0.522970 2.661570 0
M  V30 8 N -0.539610 0.149040 1.542980 0
M  V30 9 H -3.342460 1.525150 4.529700 0
M  V30 10 H -2.948460 2.868850 3.448300 0
M  V30 11 H -1.929870 2.542960 4.858080 0
M  V30 12 H -1.691730 1.902930 1.104930 0
M  V30 13 H -1.018180 -0.257310 4.647590 0
M  V30 14 H 0.227520 -1.436560 2.738620 0
M  V30 15 C 1.525590 5.407250 -0.630550 0
M  V30 16 C 1.093760 4.007030 -0.916040 0
M  V30 17 C 0.680920 2.981080 -0.101750 0
M  V30 18 N 1.041430 3.474290 -2.195630 0
M  V30 19 C 0.617540 2.183760 -2.108230 0
M  V30 20 N 0.384670 1.857530 -0.850300 0
M  V30 21 H 0.873650 6.145990 -1.115040 0
M  V30 22 H 2.552260 5.597240 -0.969460 0
M  V30 23 H 1.493430 5.591840 0.446930 0
M  V30 24 H 0.577260 2.983940 0.973970 0
M  V30 25 H 1.303670 3.951500 -3.046190 0
M  V30 26 H 0.526470 1.483600 -2.925620 0
M  V30 27 C -5.710480 -1.497820 -0.782620 0
M  V30 28 C -4.271630 -1.209320 -1.055840 0
M  V30 29 C -3.232440 -0.835870 -0.241020 0
M  V30 30 N -3.709330 -1.290390 -2.322410 0
M  V30 31 C -2.389350 -0.976350 -2.227790 0
M  V30 32 N -2.075290 -0.693190 -0.978100 0
M  V30 33 N 2.280100 -0.338600 -0.019590 0
M  V30 34 C 2.794640 -1.541760 0.586930 0
M  V30 35 C 4.482340 -1.598610 0.381140 0
M  V30 36 O 4.790020 -1.286380 -0.771110 0
M  V30 37 C 2.234530 -2.774990 -0.119920 0
M  V30 38 O 5.035940 -1.945270 1.424060 0 CHG=-1 VAL=1
M  V30 39 H -5.915900 -1.372560 0.284270 0
M  V30 40 H -5.981380 -2.526630 -1.053610 0
M  V30 41 H -6.379080 -0.822170 -1.332480 0
M  V30 42 H -3.240830 -0.663030 0.825050 0
M  V30 43 H -4.190240 -1.564840 -3.166640 0
M  V30 44 H -1.671380 -0.976490 -3.034010 0
M  V30 45 H 2.460950 0.494250 0.536500 0
M  V30 46 H 2.734800 -0.215010 -0.928550 0
M  V30 47 H 2.599490 -1.549730 1.659430 0
M  V30 48 H 2.732120 -3.681690 0.234720 0
M  V30 49 H 2.419110 -2.668570 -1.193880 0
M  V30 50 F 0.374960 -0.541920 -2.408390 0
M  V30 END ATOM
M  V30 BEGIN BOND
M  V30 1 1 43 30
M  V30 2 1 25 18
M  V30 3 1 44 31
M  V30 4 1 26 19
M  V30 5 1 50 1
M  V30 6 1 30 31
M  V30 7 1 30 28
M  V30 8 2 31 32
M  V30 9 1 18 19
M  V30 10 1 18 16
M  V30 11 2 19 20
M  V30 12 1 41 27
M  V30 13 1 49 37
M  V30 14 1 21 15
M  V30 15 1 28 27
M  V30 16 2 28 29
M  V30 17 1 40 27
M  V30 18 1 32 29
M  V30 19 1 22 15
M  V30 20 1 46 33
M  V30 21 1 16 15
M  V30 22 2 16 17
M  V30 23 1 20 17
M  V30 24 1 27 39
M  V30 25 2 36 35
M  V30 26 1 15 23
M  V30 27 1 1 2
M  V30 28 1 29 42
M  V30 29 1 37 48
M  V30 30 1 37 2
M  V30 31 1 37 34
M  V30 32 1 17 24
M  V30 33 1 33 45
M  V30 34 1 33 34
M  V30 35 1 35 34
M  V30 36 1 35 38
M  V30 37 1 34 47
M  V30 38 1 12 5
M  V30 39 1 8 5
M  V30 40 2 8 7
M  V30 41 2 5 4
M  V30 42 1 7 14
M  V30 43 1 7 6
M  V30 44 1 4 6
M  V30 45 1 4 3
M  V30 46 1 10 3
M  V30 47 1 6 13
M  V30 48 1 3 9
M  V30 49 1 3 11
M  V30 50 9 8 1
M  V30 51 9 20 1
M  V30 52 9 32 1
M  V30 53 9 33 1
M  V30 END BOND
M  V30 END CTAB
M  END
