
     RDKit          3D

  0  0  0  0  0  0  0  0  0  0999 V3000
M  V30 BEGIN CTAB
M  V30 COUNTS 73 80 0 0 0
M  V30 BEGIN ATOM
M  V30 1 Fe 1.311650 -0.673930 -0.060440 0 VAL=5
M  V30 2 S 0.476480 -0.826880 2.069730 0
M  V30 3 N 2.322810 0.948490 0.586980 0
M  V30 4 C 1.595840 1.671930 1.649320 0
M  V30 5 C 2.427710 2.833740 2.173530 0
M  V30 6 O 3.624280 2.948840 2.014180 0
M  V30 7 C 1.237660 0.696430 2.776100 0
M  V30 8 O 1.667460 3.695770 2.873550 0
M  V30 9 H 2.521450 1.576060 -0.194810 0
M  V30 10 H 3.242610 0.668650 0.936240 0
M  V30 11 H 0.674330 2.051930 1.206530 0
M  V30 12 H 0.554040 1.183590 3.476190 0
M  V30 13 H 2.143280 0.416260 3.328120 0
M  V30 14 C -0.676920 0.141920 -2.366500 0
M  V30 15 P -1.827960 -1.252130 -2.119250 0
M  V30 16 N -0.283680 0.490380 -3.629390 0
M  V30 17 H 0.918260 2.095720 -4.407740 0
M  V30 18 C 0.481720 1.620100 -3.543620 0
M  V30 19 N -0.207780 1.017260 -1.479410 0
M  V30 20 C 0.509730 1.950390 -2.205200 0
M  V30 21 H -0.487420 -0.029970 -4.471460 0
M  V30 22 N -1.113340 -3.803040 -1.322170 0
M  V30 23 C -0.752090 -2.487200 -1.289530 0
M  V30 24 N 0.350520 -2.359440 -0.550090 0
M  V30 25 C -0.226000 -4.526760 -0.567220 0
M  V30 26 N -2.410250 -0.336910 0.531710 0
M  V30 27 C 0.694860 -3.624810 -0.084760 0
M  V30 28 N -4.143200 -0.500240 -0.854600 0
M  V30 29 C -2.831710 -0.662960 -0.730040 0
M  V30 30 C -3.510590 0.054680 1.234900 0
M  V30 31 C -4.589660 -0.044630 0.364830 0
M  V30 32 H -3.435210 0.354500 2.269290 0
M  V30 33 H -1.452740 -0.376500 0.908970 0
M  V30 34 H -0.291750 -5.597180 -0.453610 0
M  V30 35 H -1.910610 -4.167610 -1.824910 0
M  V30 36 C 1.181450 3.102030 -1.587470 0
M  V30 37 C 0.514690 3.889940 -0.635560 0
M  V30 38 H -0.507620 3.639210 -0.367410 0
M  V30 39 C 1.156140 4.980440 -0.048600 0
M  V30 40 H 0.630060 5.580250 0.688390 0
M  V30 41 C 2.471210 5.295360 -0.402520 0
M  V30 42 H 2.972610 6.142060 0.058290 0
M  V30 43 C 3.143400 4.514550 -1.346020 0
M  V30 44 H 4.171540 4.744480 -1.610370 0
M  V30 45 C 2.504100 3.424420 -1.938170 0
M  V30 46 H 3.032330 2.787790 -2.642450 0
M  V30 47 C 1.832560 -3.900700 0.806630 0
M  V30 48 H 0.665560 -5.157500 2.112820 0
M  V30 49 C 1.650180 -4.742830 1.914200 0
M  V30 50 H 2.553750 -5.656820 3.638720 0
M  V30 51 C 2.710200 -5.011380 2.778600 0
M  V30 52 H 4.787490 -4.640410 3.228930 0
M  V30 53 C 3.963290 -4.437020 2.550390 0
M  V30 54 H 5.126250 -3.161900 1.253460 0
M  V30 55 C 4.151820 -3.602740 1.446260 0
M  V30 56 H 3.255530 -2.713490 -0.300340 0
M  V30 57 C 3.096880 -3.339000 0.572720 0
M  V30 58 C -6.006110 0.256460 0.609920 0
M  V30 59 H -6.598080 -0.224380 -1.397220 0
M  V30 60 C -6.944760 0.111630 -0.425590 0
M  V30 61 C -8.291800 0.394850 -0.207900 0
M  V30 62 H -9.002820 0.277130 -1.021870 0
M  V30 63 H -9.781250 1.048930 1.214130 0
M  V30 64 C -8.730540 0.828260 1.045880 0
M  V30 65 C -7.805300 0.975370 2.082510 0
M  V30 66 H -8.133670 1.310970 3.062960 0
M  V30 67 H -5.752040 0.810450 2.685530 0
M  V30 68 C -6.457760 0.692440 1.867280 0
M  V30 69 C 2.370890 4.823880 3.423090 0
M  V30 70 H 3.164170 4.490850 4.097800 0
M  V30 71 H 2.812990 5.417280 2.617950 0
M  V30 72 H 1.621160 5.402360 3.963460 0
M  V30 73 Br 2.829510 -0.724670 -2.097120 0
M  V30 END ATOM
M  V30 BEGIN BOND
M  V30 1 1 21 16
M  V30 2 1 17 18
M  V30 3 1 16 18
M  V30 4 1 16 14
M  V30 5 2 18 20
M  V30 6 1 46 45
M  V30 7 1 14 15
M  V30 8 2 14 19
M  V30 9 1 20 36
M  V30 10 1 20 19
M  V30 11 1 15 23
M  V30 12 1 15 29
M  V30 13 1 73 1
M  V30 14 1 45 36
M  V30 15 2 45 43
M  V30 16 1 35 22
M  V30 17 1 44 43
M  V30 18 2 36 37
M  V30 19 1 59 60
M  V30 20 1 43 41
M  V30 21 1 22 23
M  V30 22 1 22 25
M  V30 23 2 23 24
M  V30 24 1 62 61
M  V30 25 2 28 29
M  V30 26 1 28 31
M  V30 27 1 29 26
M  V30 28 1 37 38
M  V30 29 1 37 39
M  V30 30 1 25 34
M  V30 31 2 25 27
M  V30 32 1 24 27
M  V30 33 2 60 61
M  V30 34 1 60 58
M  V30 35 2 41 39
M  V30 36 1 41 42
M  V30 37 1 56 57
M  V30 38 1 61 64
M  V30 39 1 9 3
M  V30 40 1 27 47
M  V30 41 1 1 2
M  V30 42 1 39 40
M  V30 43 1 31 58
M  V30 44 2 31 30
M  V30 45 1 26 33
M  V30 46 1 26 30
M  V30 47 1 57 47
M  V30 48 2 57 55
M  V30 49 1 3 10
M  V30 50 1 3 4
M  V30 51 2 58 68
M  V30 52 2 47 49
M  V30 53 1 64 63
M  V30 54 2 64 65
M  V30 55 1 11 4
M  V30 56 1 30 32
M  V30 57 1 54 55
M  V30 58 1 55 53
M  V30 59 1 4 5
M  V30 60 1 4 7
M  V30 61 1 68 65
M  V30 62 1 68 67
M  V30 63 1 49 48
M  V30 64 1 49 51
M  V30 65 2 6 5
M  V30 66 1 2 7
M  V30 67 1 65 66
M  V30 68 1 5 8
M  V30 69 2 53 51
M  V30 70 1 53 52
M  V30 71 1 71 69
M  V30 72 1 7 13
M  V30 73 1 7 12
M  V30 74 1 51 50
M  V30 75 1 8 69
M  V30 76 1 69 72
M  V30 77 1 69 70
M  V30 78 9 3 1
M  V30 79 9 19 1
M  V30 80 9 24 1
M  V30 END BOND
M  V30 END CTAB
M  END
