
     RDKit          3D

  0  0  0  0  0  0  0  0  0  0999 V3000
M  V30 BEGIN CTAB
M  V30 COUNTS 75 84 0 0 0
M  V30 BEGIN ATOM
M  V30 1 Fe 0.540660 -0.250990 -0.391360 0 VAL=6
M  V30 2 S 1.184580 2.014980 0.080510 0
M  V30 3 P 1.129130 -3.562400 1.176450 0
M  V30 4 O -1.427440 0.380900 0.095960 0
M  V30 5 O -3.356550 1.474260 0.278980 0
M  V30 6 N -0.469710 -3.071230 3.427790 0
M  V30 7 N -0.064210 -1.235790 2.254520 0
M  V30 8 N -0.462210 -4.465600 -0.930570 0
M  V30 9 N -0.604930 -2.277170 -0.657310 0
M  V30 10 N 3.774070 -2.778890 1.184080 0
M  V30 11 N 2.486720 -1.187060 0.346310 0
M  V30 12 C 0.192410 -2.528620 2.354810 0
M  V30 13 C -1.180510 -2.063430 4.030050 0
M  V30 14 C -0.926040 -0.921200 3.287800 0
M  V30 15 C 0.028900 -3.374670 -0.265650 0
M  V30 16 C -1.553030 -2.667280 -1.588460 0
M  V30 17 C -1.454460 -4.033950 -1.772180 0
M  V30 18 C 2.504050 -2.430510 0.819680 0
M  V30 19 C 4.594660 -1.711580 0.931980 0
M  V30 20 C 3.792530 -0.718300 0.406970 0
M  V30 21 C -1.470610 0.427250 3.492980 0
M  V30 22 C -2.671160 0.619620 4.197950 0
M  V30 23 H -3.207310 -0.236760 4.600590 0
M  V30 24 C -3.203810 1.899050 4.350890 0
M  V30 25 H -4.138440 2.032100 4.889680 0
M  V30 26 C -2.550310 3.002510 3.795100 0
M  V30 27 H -2.975920 3.997000 3.898500 0
M  V30 28 C -1.354560 2.817800 3.096940 0
M  V30 29 H -0.842280 3.661690 2.644050 0
M  V30 30 C -0.812350 1.541910 2.954870 0
M  V30 31 H 0.100590 1.405190 2.387300 0
M  V30 32 C -2.591280 -1.793060 -2.165660 0
M  V30 33 C -3.907670 -2.282930 -2.243090 0
M  V30 34 H -4.125890 -3.285860 -1.884530 0
M  V30 35 C -4.941050 -1.482300 -2.730330 0
M  V30 36 H -5.953290 -1.875800 -2.773600 0
M  V30 37 C -4.676640 -0.172720 -3.137480 0
M  V30 38 H -5.482190 0.459670 -3.501050 0
M  V30 39 C -3.370100 0.318040 -3.074600 0
M  V30 40 H -3.149600 1.333880 -3.390530 0
M  V30 41 C -2.332960 -0.485950 -2.604050 0
M  V30 42 H -1.318790 -0.109730 -2.590290 0
M  V30 43 C 4.275500 0.615890 0.004740 0
M  V30 44 C 5.048430 1.355330 0.914490 0
M  V30 45 H 5.217530 0.962400 1.914060 0
M  V30 46 C 5.572050 2.595420 0.551920 0
M  V30 47 H 6.158390 3.165030 1.268180 0
M  V30 48 C 5.332070 3.105290 -0.726510 0
M  V30 49 H 5.736240 4.073830 -1.010160 0
M  V30 50 C 4.566440 2.371510 -1.634140 0
M  V30 51 H 4.366350 2.765910 -2.626460 0
M  V30 52 C 4.037320 1.132760 -1.275260 0
M  V30 53 H 3.425590 0.573940 -1.973660 0
M  V30 54 C -2.052150 1.442490 -0.027290 0
M  V30 55 C -1.526550 2.727440 -0.497520 0
M  V30 56 C -0.131700 3.032880 -0.486510 0
M  V30 57 C 0.236640 4.328390 -0.931870 0
M  V30 58 H 1.292760 4.579850 -0.923220 0
M  V30 59 C -0.692860 5.250680 -1.381230 0
M  V30 60 H -0.355750 6.225500 -1.726150 0
M  V30 61 C -2.060670 4.932440 -1.401270 0
M  V30 62 H -2.792990 5.649350 -1.760940 0
M  V30 63 C -2.461420 3.687440 -0.952970 0
M  V30 64 H -3.512640 3.423230 -0.953300 0
M  V30 65 C -3.949960 0.227300 0.681400 0
M  V30 66 H -4.984150 0.473570 0.924790 0
M  V30 67 H -3.433510 -0.169630 1.557200 0
M  V30 68 H -3.907260 -0.494170 -0.136300 0
M  V30 69 H 4.050240 -3.676650 1.556100 0
M  V30 70 H 5.658820 -1.736710 1.106500 0
M  V30 71 H -0.425710 -4.034710 3.728430 0
M  V30 72 H -1.763550 -2.226130 4.923330 0
M  V30 73 H -0.132040 -5.414950 -0.829150 0
M  V30 74 H -1.989920 -4.701390 -2.429200 0
M  V30 75 Br 1.266740 -0.669100 -2.853780 0
M  V30 END ATOM
M  V30 BEGIN BOND
M  V30 1 1 38 37
M  V30 2 1 40 39
M  V30 3 2 37 39
M  V30 4 1 37 35
M  V30 5 1 39 41
M  V30 6 1 75 1
M  V30 7 1 36 35
M  V30 8 2 35 33
M  V30 9 1 51 50
M  V30 10 1 41 42
M  V30 11 2 41 32
M  V30 12 1 74 17
M  V30 13 1 33 32
M  V30 14 1 33 34
M  V30 15 1 32 16
M  V30 16 1 53 52
M  V30 17 2 17 16
M  V30 18 1 17 8
M  V30 19 1 62 61
M  V30 20 1 60 59
M  V30 21 2 50 52
M  V30 22 1 50 48
M  V30 23 1 16 9
M  V30 24 2 61 59
M  V30 25 1 61 63
M  V30 26 1 59 57
M  V30 27 1 52 43
M  V30 28 1 49 48
M  V30 29 1 64 63
M  V30 30 2 63 55
M  V30 31 1 57 58
M  V30 32 2 57 56
M  V30 33 1 8 73
M  V30 34 1 8 15
M  V30 35 2 48 46
M  V30 36 2 9 15
M  V30 37 1 55 56
M  V30 38 1 55 54
M  V30 39 1 56 2
M  V30 40 1 1 2
M  V30 41 1 15 3
M  V30 42 1 68 65
M  V30 43 2 54 4
M  V30 44 1 54 5
M  V30 45 1 43 20
M  V30 46 2 43 44
M  V30 47 1 5 65
M  V30 48 1 11 20
M  V30 49 2 11 18
M  V30 50 2 20 19
M  V30 51 1 46 44
M  V30 52 1 46 47
M  V30 53 1 65 66
M  V30 54 1 65 67
M  V30 55 1 18 3
M  V30 56 1 18 10
M  V30 57 1 44 45
M  V30 58 1 19 70
M  V30 59 1 19 10
M  V30 60 1 3 12
M  V30 61 1 10 69
M  V30 62 2 7 12
M  V30 63 1 7 14
M  V30 64 1 12 6
M  V30 65 1 31 30
M  V30 66 1 29 28
M  V30 67 2 30 28
M  V30 68 1 30 21
M  V30 69 1 28 26
M  V30 70 1 14 21
M  V30 71 2 14 13
M  V30 72 1 6 71
M  V30 73 1 6 13
M  V30 74 2 21 22
M  V30 75 1 26 27
M  V30 76 2 26 24
M  V30 77 1 13 72
M  V30 78 1 22 24
M  V30 79 1 22 23
M  V30 80 1 24 25
M  V30 81 9 4 1
M  V30 82 9 7 1
M  V30 83 9 9 1
M  V30 84 9 11 1
M  V30 END BOND
M  V30 END CTAB
M  END
