
     RDKit          3D

  0  0  0  0  0  0  0  0  0  0999 V3000
M  V30 BEGIN CTAB
M  V30 COUNTS 46 50 0 0 0
M  V30 BEGIN ATOM
M  V30 1 Fe 0.056960 -0.535630 -0.484290 0 CHG=2 VAL=6
M  V30 2 C -4.272190 1.328100 -0.012980 0
M  V30 3 C -3.418180 1.169180 1.083350 0
M  V30 4 C -3.835190 0.948440 -1.283230 0
M  V30 5 C -2.149940 0.641090 0.878340 0
M  V30 6 C -1.113160 0.457770 1.956870 0
M  V30 7 C -2.558670 0.414540 -1.424650 0
M  V30 8 C 1.181250 3.615140 -0.075010 0
M  V30 9 N -1.742880 0.277470 -0.363780 0
M  V30 10 C 0.423710 2.455710 -0.162460 0
M  V30 11 C 2.573630 3.508260 -0.010790 0
M  V30 12 N -0.281150 -0.732790 1.597480 0
M  V30 13 C -1.030520 -1.960730 2.028160 0
M  V30 14 N 0.994000 1.232220 -0.182070 0
M  V30 15 C 1.090750 -0.722110 2.195760 0
M  V30 16 C 3.160020 2.243810 -0.070330 0
M  V30 17 C 2.340990 1.123390 -0.180260 0
M  V30 18 C 1.962690 -1.669870 1.386620 0
M  V30 19 N 1.919190 -1.336180 -0.085590 0
M  V30 20 C 2.884110 -0.248610 -0.448540 0
M  V30 21 C 2.278740 -2.552720 -0.881140 0
M  V30 22 H -5.268870 1.734960 0.127280 0
M  V30 23 H -3.734000 1.444150 2.084570 0
M  V30 24 H -4.470530 1.052130 -2.156090 0
M  V30 25 H -1.572860 0.323210 2.941380 0
M  V30 26 H -0.464460 1.335790 2.013200 0
M  V30 27 H -2.164760 0.091600 -2.379250 0
M  V30 28 H 0.686370 4.580090 -0.060480 0
M  V30 29 H -0.655670 2.490790 -0.222970 0
M  V30 30 H 3.192910 4.396510 0.067900 0
M  V30 31 H -1.130810 -1.940850 3.118950 0
M  V30 32 H -2.014840 -1.964660 1.562680 0
M  V30 33 H -0.505800 -2.860820 1.720060 0
M  V30 34 H 1.053620 -1.041670 3.243560 0
M  V30 35 H 1.474970 0.297840 2.169540 0
M  V30 36 H 4.238760 2.125140 -0.055460 0
M  V30 37 H 1.604830 -2.694680 1.488300 0
M  V30 38 H 2.999450 -1.649430 1.739790 0
M  V30 39 H 3.844840 -0.418590 0.049800 0
M  V30 40 H 3.050720 -0.321040 -1.527910 0
M  V30 41 H 1.619430 -3.375400 -0.615430 0
M  V30 42 H 2.159900 -2.327930 -1.940900 0
M  V30 43 H 3.320260 -2.823440 -0.673320 0
M  V30 44 O 0.404190 -0.229440 -2.173430 0
M  V30 45 H 0.124080 -0.968690 -2.750000 0
M  V30 46 Cl -0.907900 -2.489210 -0.976870 0
M  V30 END ATOM
M  V30 BEGIN BOND
M  V30 1 1 45 44
M  V30 2 1 27 7
M  V30 3 1 44 1
M  V30 4 1 24 4
M  V30 5 1 42 21
M  V30 6 1 40 20
M  V30 7 1 7 4
M  V30 8 2 7 9
M  V30 9 2 4 2
M  V30 10 1 46 1
M  V30 11 1 21 43
M  V30 12 1 21 41
M  V30 13 1 21 19
M  V30 14 1 20 17
M  V30 15 1 20 19
M  V30 16 1 20 39
M  V30 17 1 9 5
M  V30 18 1 29 10
M  V30 19 2 14 17
M  V30 20 1 14 10
M  V30 21 1 17 16
M  V30 22 2 10 8
M  V30 23 1 19 18
M  V30 24 1 8 28
M  V30 25 1 8 11
M  V30 26 1 16 36
M  V30 27 2 16 11
M  V30 28 1 2 22
M  V30 29 1 2 3
M  V30 30 1 11 30
M  V30 31 2 5 3
M  V30 32 1 5 6
M  V30 33 1 3 23
M  V30 34 1 18 37
M  V30 35 1 18 38
M  V30 36 1 18 15
M  V30 37 1 32 13
M  V30 38 1 12 6
M  V30 39 1 12 13
M  V30 40 1 12 15
M  V30 41 1 33 13
M  V30 42 1 6 26
M  V30 43 1 6 25
M  V30 44 1 13 31
M  V30 45 1 35 15
M  V30 46 1 15 34
M  V30 47 9 9 1
M  V30 48 9 12 1
M  V30 49 9 14 1
M  V30 50 9 19 1
M  V30 END BOND
M  V30 END CTAB
M  END
