
     RDKit          3D

  0  0  0  0  0  0  0  0  0  0999 V3000
M  V30 BEGIN CTAB
M  V30 COUNTS 46 50 0 0 0
M  V30 BEGIN ATOM
M  V30 1 Fe 0.061400 -0.567710 -0.571010 0 CHG=2 VAL=6
M  V30 2 C -4.403550 0.921050 -0.038370 0
M  V30 3 C -3.568070 0.695030 1.060870 0
M  V30 4 C -3.904890 0.734860 -1.328590 0
M  V30 5 C -2.257610 0.293410 0.837800 0
M  V30 6 C -1.236620 0.046880 1.919750 0
M  V30 7 C -2.584500 0.325580 -1.487840 0
M  V30 8 C 0.995280 3.547720 0.297150 0
M  V30 9 N -1.789130 0.118620 -0.423620 0
M  V30 10 C 0.286890 2.375800 0.071470 0
M  V30 11 C 2.391410 3.494030 0.342060 0
M  V30 12 N -0.301470 -1.010180 1.428620 0
M  V30 13 C -0.964650 -2.347410 1.582600 0
M  V30 14 N 0.909310 1.190160 -0.101210 0
M  V30 15 C 1.041900 -0.990080 2.083120 0
M  V30 16 C 3.032370 2.272000 0.131230 0
M  V30 17 C 2.262210 1.138650 -0.108900 0
M  V30 18 C 2.004770 -1.776290 1.204040 0
M  V30 19 N 1.929820 -1.319450 -0.237060 0
M  V30 20 C 2.855830 -0.178420 -0.521860 0
M  V30 21 C 2.248980 -2.465960 -1.142210 0
M  V30 22 H -5.432740 1.230930 0.114370 0
M  V30 23 H -3.931120 0.820620 2.075860 0
M  V30 24 H -4.523680 0.897540 -2.204340 0
M  V30 25 H -1.704640 -0.258940 2.861400 0
M  V30 26 H -0.662290 0.957180 2.114940 0
M  V30 27 H -2.137120 0.168330 -2.460870 0
M  V30 28 H 0.460770 4.481800 0.431250 0
M  V30 29 H -0.793730 2.368670 0.018890 0
M  V30 30 H 2.972650 4.392560 0.525080 0
M  V30 31 H -1.099260 -2.549810 2.650430 0
M  V30 32 H -1.928710 -2.328450 1.077510 0
M  V30 33 H -0.365130 -3.126860 1.122070 0
M  V30 34 H 0.989470 -1.433260 3.084470 0
M  V30 35 H 1.356400 0.048720 2.189810 0
M  V30 36 H 4.115270 2.200100 0.132700 0
M  V30 37 H 1.752200 -2.836720 1.215280 0
M  V30 38 H 3.033200 -1.683600 1.567770 0
M  V30 39 H 3.832720 -0.357330 -0.060040 0
M  V30 40 H 2.997060 -0.144990 -1.606590 0
M  V30 41 H 1.501090 -3.244100 -1.003030 0
M  V30 42 H 2.214260 -2.118890 -2.174740 0
M  V30 43 H 3.250310 -2.846890 -0.913150 0
M  V30 44 O 0.372780 -0.136090 -2.235690 0
M  V30 45 H 0.107740 -0.886990 -2.807060 0
M  V30 46 F -0.557930 -2.141750 -1.033490 0
M  V30 END ATOM
M  V30 BEGIN BOND
M  V30 1 1 45 44
M  V30 2 1 27 7
M  V30 3 1 44 1
M  V30 4 1 24 4
M  V30 5 1 42 21
M  V30 6 1 40 20
M  V30 7 1 7 4
M  V30 8 2 7 9
M  V30 9 2 4 2
M  V30 10 1 21 41
M  V30 11 1 21 43
M  V30 12 1 21 19
M  V30 13 1 46 1
M  V30 14 1 20 19
M  V30 15 1 20 17
M  V30 16 1 20 39
M  V30 17 1 9 5
M  V30 18 1 19 18
M  V30 19 2 17 14
M  V30 20 1 17 16
M  V30 21 1 14 10
M  V30 22 1 2 22
M  V30 23 1 2 3
M  V30 24 1 29 10
M  V30 25 2 10 8
M  V30 26 1 16 36
M  V30 27 2 16 11
M  V30 28 1 8 11
M  V30 29 1 8 28
M  V30 30 1 11 30
M  V30 31 2 5 3
M  V30 32 1 5 6
M  V30 33 1 3 23
M  V30 34 1 32 13
M  V30 35 1 33 13
M  V30 36 1 18 37
M  V30 37 1 18 38
M  V30 38 1 18 15
M  V30 39 1 12 13
M  V30 40 1 12 6
M  V30 41 1 12 15
M  V30 42 1 13 31
M  V30 43 1 6 26
M  V30 44 1 6 25
M  V30 45 1 15 35
M  V30 46 1 15 34
M  V30 47 9 9 1
M  V30 48 9 12 1
M  V30 49 9 14 1
M  V30 50 9 19 1
M  V30 END BOND
M  V30 END CTAB
M  END
