
     RDKit          3D

  0  0  0  0  0  0  0  0  0  0999 V3000
M  V30 BEGIN CTAB
M  V30 COUNTS 51 55 0 0 0
M  V30 BEGIN ATOM
M  V30 1 Fe -0.199320 -0.474380 -0.495730 0 CHG=2 VAL=6
M  V30 2 O -0.194930 -0.746000 -2.278100 0
M  V30 3 C -2.744870 3.661830 0.066550 0
M  V30 4 C -1.941830 3.164840 1.097270 0
M  V30 5 C -2.802280 2.977770 -1.150540 0
M  V30 6 C -1.212700 1.999750 0.882270 0
M  V30 7 C -0.262660 1.410630 1.903240 0
M  V30 8 C -2.053190 1.815610 -1.294950 0
M  V30 9 C 3.188540 2.437300 -0.743610 0
M  V30 10 N -1.276850 1.343120 -0.298800 0
M  V30 11 C 1.917840 1.875190 -0.711120 0
M  V30 12 C 4.294510 1.596380 -0.594930 0
M  V30 13 N -0.224450 -0.065510 1.765520 0
M  V30 14 C -1.426460 -0.644340 2.421410 0
M  V30 15 N 1.721200 0.552240 -0.547600 0
M  V30 16 C 1.024980 -0.668500 2.297750 0
M  V30 17 C 4.089700 0.224580 -0.438530 0
M  V30 18 C 2.786320 -0.268520 -0.433360 0
M  V30 19 N -2.022840 -1.710790 -0.343560 0
M  V30 20 C 1.221290 -2.065520 1.709920 0
M  V30 21 N 1.165680 -2.068830 0.212780 0
M  V30 22 C 2.482980 -1.747060 -0.406640 0
M  V30 23 C 0.706480 -3.395080 -0.290070 0
M  V30 24 C -2.986280 -2.302370 -0.595460 0
M  V30 25 C -4.193040 -3.051210 -0.913330 0
M  V30 26 H -3.321860 4.569560 0.214880 0
M  V30 27 H -1.884350 3.673280 2.054450 0
M  V30 28 H -3.415730 3.334300 -1.970800 0
M  V30 29 H -0.543960 1.713480 2.919810 0
M  V30 30 H 0.743000 1.800440 1.716070 0
M  V30 31 H -2.048350 1.231260 -2.208980 0
M  V30 32 H 3.305700 3.506900 -0.879640 0
M  V30 33 H 1.023760 2.479670 -0.815520 0
M  V30 34 H 5.301560 2.001790 -0.604880 0
M  V30 35 H -1.413320 -0.440900 3.499800 0
M  V30 36 H -2.322180 -0.203930 1.980650 0
M  V30 37 H -1.465820 -1.720470 2.258250 0
M  V30 38 H 1.000020 -0.734090 3.393790 0
M  V30 39 H 1.859360 -0.019380 2.027650 0
M  V30 40 H 4.928170 -0.456290 -0.331490 0
M  V30 41 H 0.431910 -2.731520 2.063020 0
M  V30 42 H 2.171970 -2.488770 2.056730 0
M  V30 43 H 3.286050 -2.308190 0.086980 0
M  V30 44 H 2.439030 -2.090690 -1.445930 0
M  V30 45 H -0.253230 -3.635890 0.167090 0
M  V30 46 H 0.573950 -3.335040 -1.371780 0
M  V30 47 H 1.432750 -4.179370 -0.044640 0
M  V30 48 H -4.226350 -3.253760 -1.989360 0
M  V30 49 H -5.077830 -2.472090 -0.628260 0
M  V30 50 H -4.197030 -4.001620 -0.368870 0
M  V30 51 H 0.339330 -0.415920 -3.018780 0
M  V30 END ATOM
M  V30 BEGIN BOND
M  V30 1 1 51 2
M  V30 2 1 2 1
M  V30 3 1 31 8
M  V30 4 1 48 25
M  V30 5 1 28 5
M  V30 6 1 44 22
M  V30 7 1 46 23
M  V30 8 1 8 5
M  V30 9 2 8 10
M  V30 10 2 5 3
M  V30 11 1 25 49
M  V30 12 1 25 24
M  V30 13 1 25 50
M  V30 14 1 32 9
M  V30 15 1 33 11
M  V30 16 2 9 11
M  V30 17 1 9 12
M  V30 18 1 11 15
M  V30 19 1 34 12
M  V30 20 3 24 19
M  V30 21 2 12 17
M  V30 22 2 15 18
M  V30 23 1 17 18
M  V30 24 1 17 40
M  V30 25 1 18 22
M  V30 26 1 22 43
M  V30 27 1 22 21
M  V30 28 1 10 6
M  V30 29 1 23 47
M  V30 30 1 23 45
M  V30 31 1 23 21
M  V30 32 1 3 26
M  V30 33 1 3 4
M  V30 34 1 21 20
M  V30 35 2 6 4
M  V30 36 1 6 7
M  V30 37 1 4 27
M  V30 38 1 20 42
M  V30 39 1 20 41
M  V30 40 1 20 16
M  V30 41 1 30 7
M  V30 42 1 13 7
M  V30 43 1 13 16
M  V30 44 1 13 14
M  V30 45 1 7 29
M  V30 46 1 36 14
M  V30 47 1 39 16
M  V30 48 1 37 14
M  V30 49 1 16 38
M  V30 50 1 14 35
M  V30 51 9 10 1
M  V30 52 9 13 1
M  V30 53 9 15 1
M  V30 54 9 19 1
M  V30 55 9 21 1
M  V30 END BOND
M  V30 END CTAB
M  END
