
     RDKit          3D

  0  0  0  0  0  0  0  0  0  0999 V3000
M  V30 BEGIN CTAB
M  V30 COUNTS 48 52 0 0 0
M  V30 BEGIN ATOM
M  V30 1 Fe -0.088740 -0.349840 -0.307690 0 CHG=2 VAL=6
M  V30 2 C -1.585470 4.144590 0.009740 0
M  V30 3 C -1.021800 3.475980 1.100330 0
M  V30 4 C -1.686420 3.486980 -1.218140 0
M  V30 5 C -0.576370 2.169440 0.934020 0
M  V30 6 C 0.142290 1.374530 1.995630 0
M  V30 7 C -1.233560 2.175520 -1.317010 0
M  V30 8 C 3.687070 1.712060 -0.675650 0
M  V30 9 N -0.697310 1.538790 -0.259620 0
M  V30 10 C 2.329370 1.456390 -0.528970 0
M  V30 11 C 4.577710 0.637500 -0.700690 0
M  V30 12 N -0.136680 -0.074490 1.778150 0
M  V30 13 C -1.446150 -0.399670 2.416190 0
M  V30 14 N 1.840120 0.206040 -0.406830 0
M  V30 15 C 0.942670 -0.968340 2.293410 0
M  V30 16 C 4.069950 -0.657830 -0.606120 0
M  V30 17 C 2.695340 -0.837630 -0.480590 0
M  V30 18 C 0.805500 -2.325980 1.617200 0
M  V30 19 N 0.704700 -2.188500 0.116010 0
M  V30 20 C 2.048270 -2.188250 -0.544100 0
M  V30 21 C -0.082950 -3.329790 -0.438390 0
M  V30 22 H -1.938640 5.165350 0.118630 0
M  V30 23 H -0.924480 3.961920 2.065840 0
M  V30 24 H -2.109240 3.976170 -2.088880 0
M  V30 25 H -0.148300 1.687530 3.004620 0
M  V30 26 H 1.219600 1.538730 1.899110 0
M  V30 27 H -1.268670 1.610710 -2.240320 0
M  V30 28 H 4.032590 2.735650 -0.770130 0
M  V30 29 H 1.609520 2.263000 -0.515270 0
M  V30 30 H 5.645290 0.803850 -0.804810 0
M  V30 31 H -1.374320 -0.267090 3.501720 0
M  V30 32 H -2.212520 0.267250 2.020070 0
M  V30 33 H -1.735480 -1.425220 2.195410 0
M  V30 34 H 0.875870 -1.079700 3.382610 0
M  V30 35 H 1.905270 -0.512430 2.061290 0
M  V30 36 H 4.725920 -1.521400 -0.647090 0
M  V30 37 H -0.103130 -2.825850 1.955590 0
M  V30 38 H 1.646040 -2.977990 1.877550 0
M  V30 39 H 2.680630 -2.976370 -0.120520 0
M  V30 40 H 1.880820 -2.416220 -1.600870 0
M  V30 41 H -1.059470 -3.363540 0.043560 0
M  V30 42 H -0.211260 -3.178070 -1.510190 0
M  V30 43 H 0.443550 -4.273860 -0.258390 0
M  V30 44 O 0.067510 -0.533500 -2.067530 0
M  V30 45 H -0.764430 -0.847760 -2.467680 0
M  V30 46 N -1.897460 -0.922330 -0.376760 0
M  V30 47 C -3.038810 -1.197660 -0.554670 0
M  V30 48 S -4.593840 -1.579020 -0.770710 0
M  V30 END ATOM
M  V30 BEGIN BOND
M  V30 1 1 45 44
M  V30 2 1 27 7
M  V30 3 1 24 4
M  V30 4 1 44 1
M  V30 5 1 40 20
M  V30 6 1 42 21
M  V30 7 1 7 4
M  V30 8 2 7 9
M  V30 9 2 4 2
M  V30 10 1 30 11
M  V30 11 2 48 47
M  V30 12 1 28 8
M  V30 13 2 11 8
M  V30 14 1 11 16
M  V30 15 1 8 10
M  V30 16 1 36 16
M  V30 17 2 16 17
M  V30 18 2 47 46
M  V30 19 1 20 17
M  V30 20 1 20 39
M  V30 21 1 20 19
M  V30 22 1 10 29
M  V30 23 2 10 14
M  V30 24 1 17 14
M  V30 25 1 21 43
M  V30 26 1 21 41
M  V30 27 1 21 19
M  V30 28 1 46 1
M  V30 29 1 9 5
M  V30 30 1 2 22
M  V30 31 1 2 3
M  V30 32 1 19 18
M  V30 33 2 5 3
M  V30 34 1 5 6
M  V30 35 1 3 23
M  V30 36 1 18 38
M  V30 37 1 18 37
M  V30 38 1 18 15
M  V30 39 1 12 6
M  V30 40 1 12 15
M  V30 41 1 12 13
M  V30 42 1 26 6
M  V30 43 1 6 25
M  V30 44 1 32 13
M  V30 45 1 35 15
M  V30 46 1 33 13
M  V30 47 1 15 34
M  V30 48 1 13 31
M  V30 49 9 9 1
M  V30 50 9 12 1
M  V30 51 9 14 1
M  V30 52 9 19 1
M  V30 END BOND
M  V30 END CTAB
M  END
