
     RDKit          3D

  0  0  0  0  0  0  0  0  0  0999 V3000
M  V30 BEGIN CTAB
M  V30 COUNTS 60 64 0 0 0
M  V30 BEGIN ATOM
M  V30 1 Fe 0.215770 -0.303530 -0.165040 0 CHG=2 VAL=6
M  V30 2 O -1.587260 -0.827450 0.148610 0
M  V30 3 H -0.819230 -0.812360 -2.163740 0
M  V30 4 O 0.102030 -0.620610 -1.904940 0
M  V30 5 O -2.436640 -0.398630 -0.789770 0
M  V30 6 C -1.013740 4.272790 0.078440 0
M  V30 7 C -0.338410 3.630340 1.120490 0
M  V30 8 C -1.314650 3.559290 -1.082980 0
M  V30 9 C 0.015260 2.294360 0.971520 0
M  V30 10 C 0.832370 1.516900 1.974770 0
M  V30 11 C -0.944560 2.220540 -1.164300 0
M  V30 12 C 4.041400 1.439510 -1.146510 0
M  V30 13 N -0.300800 1.607600 -0.154260 0
M  V30 14 C 2.701710 1.297570 -0.806240 0
M  V30 15 C 4.840090 0.297340 -1.229230 0
M  V30 16 N 0.457300 0.077380 1.881800 0
M  V30 17 C -0.783090 -0.138570 2.682030 0
M  V30 18 N 2.147920 0.096290 -0.550440 0
M  V30 19 C -3.907450 -2.354810 -0.516670 0
M  V30 20 C 1.542740 -0.850690 2.313390 0
M  V30 21 C 4.259720 -0.948920 -0.994140 0
M  V30 22 C 2.906010 -1.014290 -0.675900 0
M  V30 23 C -4.302720 -0.201700 0.790440 0
M  V30 24 C -3.878810 -0.831950 -0.530550 0
M  V30 25 C 1.244140 -2.234700 1.748230 0
M  V30 26 C -4.584150 -0.228230 -1.738470 0
M  V30 27 N 0.930250 -2.172740 0.272380 0
M  V30 28 C 2.158170 -2.311420 -0.570540 0
M  V30 29 C -0.017300 -3.266120 -0.087840 0
M  V30 30 H -1.296380 5.316680 0.173130 0
M  V30 31 H -0.085030 4.159170 2.033670 0
M  V30 32 H -1.825070 4.027490 -1.917530 0
M  V30 33 H 0.696330 1.898440 2.993030 0
M  V30 34 H 1.893600 1.614270 1.727110 0
M  V30 35 H -1.135380 1.612550 -2.038700 0
M  V30 36 H 4.444260 2.426860 -1.343660 0
M  V30 37 H 2.046510 2.156010 -0.741150 0
M  V30 38 H 5.892410 0.374340 -1.484080 0
M  V30 39 H -0.579560 0.040670 3.743970 0
M  V30 40 H -1.553750 0.550760 2.336190 0
M  V30 41 H -1.152550 -1.153600 2.548680 0
M  V30 42 H -3.501870 -2.765820 -1.446310 0
M  V30 43 H -4.946130 -2.686330 -0.425170 0
M  V30 44 H -3.349780 -2.754660 0.334420 0
M  V30 45 H 1.613570 -0.894970 3.407260 0
M  V30 46 H 2.489360 -0.469040 1.930470 0
M  V30 47 H 4.841370 -1.861740 -1.072810 0
M  V30 48 H -4.178720 0.885450 0.763360 0
M  V30 49 H -3.731310 -0.614500 1.626120 0
M  V30 50 H -5.361000 -0.419260 0.962840 0
M  V30 51 H 0.373440 -2.664930 2.245460 0
M  V30 52 H 2.082760 -2.916000 1.927050 0
M  V30 53 H -4.475290 0.860370 -1.758710 0
M  V30 54 H -5.651350 -0.460670 -1.674560 0
M  V30 55 H -4.202840 -0.647410 -2.674530 0
M  V30 56 H 2.787860 -3.127650 -0.199030 0
M  V30 57 H 1.820980 -2.570260 -1.578370 0
M  V30 58 H -0.922640 -3.168320 0.510460 0
M  V30 59 H -0.273820 -3.168770 -1.142930 0
M  V30 60 H 0.441140 -4.244500 0.095660 0
M  V30 END ATOM
M  V30 BEGIN BOND
M  V30 1 1 55 26
M  V30 2 1 3 4
M  V30 3 1 35 11
M  V30 4 1 32 8
M  V30 5 1 4 1
M  V30 6 1 53 26
M  V30 7 1 26 54
M  V30 8 1 26 24
M  V30 9 1 57 28
M  V30 10 1 38 15
M  V30 11 1 42 19
M  V30 12 1 36 12
M  V30 13 2 15 12
M  V30 14 1 15 21
M  V30 15 1 11 8
M  V30 16 2 11 13
M  V30 17 1 12 14
M  V30 18 1 59 29
M  V30 19 2 8 6
M  V30 20 1 47 21
M  V30 21 2 21 22
M  V30 22 1 14 37
M  V30 23 2 14 18
M  V30 24 1 5 24
M  V30 25 1 5 2
M  V30 26 1 22 28
M  V30 27 1 22 18
M  V30 28 1 28 56
M  V30 29 1 28 27
M  V30 30 1 24 19
M  V30 31 1 24 23
M  V30 32 1 19 43
M  V30 33 1 19 44
M  V30 34 1 1 2
M  V30 35 1 13 9
M  V30 36 1 29 60
M  V30 37 1 29 27
M  V30 38 1 29 58
M  V30 39 1 6 30
M  V30 40 1 6 7
M  V30 41 1 27 25
M  V30 42 1 48 23
M  V30 43 1 23 50
M  V30 44 1 23 49
M  V30 45 2 9 7
M  V30 46 1 9 10
M  V30 47 1 7 31
M  V30 48 1 34 10
M  V30 49 1 25 52
M  V30 50 1 25 51
M  V30 51 1 25 20
M  V30 52 1 16 10
M  V30 53 1 16 20
M  V30 54 1 16 17
M  V30 55 1 46 20
M  V30 56 1 10 33
M  V30 57 1 20 45
M  V30 58 1 40 17
M  V30 59 1 41 17
M  V30 60 1 17 39
M  V30 61 9 13 1
M  V30 62 9 16 1
M  V30 63 9 18 1
M  V30 64 9 27 1
M  V30 END BOND
M  V30 END CTAB
M  END
