
     RDKit          3D

  0  0  0  0  0  0  0  0  0  0999 V3000
M  V30 BEGIN CTAB
M  V30 COUNTS 48 52 0 0 0
M  V30 BEGIN ATOM
M  V30 1 Fe -0.031340 -0.051180 -0.687340 0 CHG=2 VAL=6
M  V30 2 C -4.265760 1.496310 0.807810 0
M  V30 3 C -3.888070 0.152450 0.866640 0
M  V30 4 C -3.355940 2.439930 0.325910 0
M  V30 5 C -2.612290 -0.209450 0.449430 0
M  V30 6 C -2.073370 -1.615520 0.498640 0
M  V30 7 C -2.097340 2.011690 -0.079570 0
M  V30 8 C 0.696550 -0.180020 3.641470 0
M  V30 9 N -1.733350 0.717100 -0.009970 0
M  V30 10 C 0.106100 0.039960 2.403270 0
M  V30 11 C 1.940940 -0.812550 3.690930 0
M  V30 12 N -1.108000 -1.783370 -0.628760 0
M  V30 13 C -1.893270 -2.052370 -1.876300 0
M  V30 14 N 0.690770 -0.333780 1.246140 0
M  V30 15 C -0.110330 -2.868710 -0.387280 0
M  V30 16 C 2.560270 -1.173890 2.494760 0
M  V30 17 C 1.914860 -0.903560 1.290080 0
M  V30 18 C 1.072950 -2.627940 -1.309900 0
M  V30 19 N 1.595720 -1.221310 -1.160110 0
M  V30 20 C 2.580860 -1.106940 -0.041460 0
M  V30 21 C 2.265200 -0.818040 -2.434200 0
M  V30 22 H -5.258990 1.799510 1.124170 0
M  V30 23 H -4.576190 -0.607320 1.222830 0
M  V30 24 H -3.615020 3.490730 0.255800 0
M  V30 25 H -2.876070 -2.358260 0.440080 0
M  V30 26 H -1.543190 -1.777260 1.441310 0
M  V30 27 H -1.357910 2.698050 -0.472380 0
M  V30 28 H 0.186540 0.136270 4.544850 0
M  V30 29 H -0.858600 0.524230 2.320810 0
M  V30 30 H 2.424280 -1.011540 4.642340 0
M  V30 31 H -2.431510 -2.999290 -1.759560 0
M  V30 32 H -2.595750 -1.236560 -2.038260 0
M  V30 33 H -1.235400 -2.095530 -2.739120 0
M  V30 34 H -0.552230 -3.853560 -0.578490 0
M  V30 35 H 0.192410 -2.834500 0.660130 0
M  V30 36 H 3.536830 -1.647580 2.491100 0
M  V30 37 H 0.768380 -2.744360 -2.350340 0
M  V30 38 H 1.875090 -3.349820 -1.121410 0
M  V30 39 H 3.256440 -1.969830 -0.036580 0
M  V30 40 H 3.193460 -0.221530 -0.241190 0
M  V30 41 H 1.534820 -0.854460 -3.240200 0
M  V30 42 H 2.632720 0.203790 -2.336700 0
M  V30 43 H 3.103580 -1.491660 -2.644850 0
M  V30 44 O -0.471830 0.134200 -2.392760 0
M  V30 45 H -0.337900 1.053320 -2.689400 0
M  V30 46 N 0.941480 1.579190 -0.684770 0
M  V30 47 C 1.598830 2.568600 -0.642540 0
M  V30 48 S 2.486010 3.916230 -0.587880 0
M  V30 END ATOM
M  V30 BEGIN BOND
M  V30 1 1 41 21
M  V30 2 1 33 13
M  V30 3 1 45 44
M  V30 4 1 43 21
M  V30 5 1 21 42
M  V30 6 1 21 19
M  V30 7 1 44 1
M  V30 8 1 37 18
M  V30 9 1 32 13
M  V30 10 1 13 31
M  V30 11 1 13 12
M  V30 12 1 18 19
M  V30 13 1 18 38
M  V30 14 1 18 15
M  V30 15 1 19 20
M  V30 16 1 1 46
M  V30 17 2 46 47
M  V30 18 2 47 48
M  V30 19 1 12 15
M  V30 20 1 12 6
M  V30 21 1 34 15
M  V30 22 1 27 7
M  V30 23 1 15 35
M  V30 24 1 40 20
M  V30 25 2 7 9
M  V30 26 1 7 4
M  V30 27 1 20 39
M  V30 28 1 20 17
M  V30 29 1 9 5
M  V30 30 1 24 4
M  V30 31 2 4 2
M  V30 32 1 25 6
M  V30 33 1 5 6
M  V30 34 2 5 3
M  V30 35 1 6 26
M  V30 36 1 2 3
M  V30 37 1 2 22
M  V30 38 1 3 23
M  V30 39 2 14 17
M  V30 40 1 14 10
M  V30 41 1 17 16
M  V30 42 1 29 10
M  V30 43 2 10 8
M  V30 44 1 36 16
M  V30 45 2 16 11
M  V30 46 1 8 11
M  V30 47 1 8 28
M  V30 48 1 11 30
M  V30 49 9 9 1
M  V30 50 9 12 1
M  V30 51 9 14 1
M  V30 52 9 19 1
M  V30 END BOND
M  V30 END CTAB
M  END
