
     RDKit          3D

  0  0  0  0  0  0  0  0  0  0999 V3000
M  V30 BEGIN CTAB
M  V30 COUNTS 60 63 0 0 0
M  V30 BEGIN ATOM
M  V30 1 Fe -0.014250 0.029240 -0.207030 0 CHG=2 VAL=6
M  V30 2 N -1.533810 1.574650 -0.423730 0
M  V30 3 N 1.393750 1.733330 -0.107690 0
M  V30 4 N 1.635980 -1.470720 -0.271400 0
M  V30 5 N -1.302470 -1.689380 -0.599930 0
M  V30 6 C -0.749970 2.690270 -1.054850 0
M  V30 7 C 0.545090 2.963030 -0.307240 0
M  V30 8 C 2.381200 1.577560 -1.232430 0
M  V30 9 C 3.245050 0.308810 -1.196540 0
M  V30 10 C 2.560850 -1.053600 -1.380960 0
M  V30 11 C 0.951390 -2.774440 -0.590980 0
M  V30 12 C -0.366260 -2.610620 -1.330040 0
M  V30 13 C -2.479130 -1.376060 -1.475410 0
M  V30 14 C -3.310180 -0.165330 -1.046660 0
M  V30 15 C -2.663840 1.191150 -1.332850 0
M  V30 16 C -2.091150 1.997420 0.890900 0
M  V30 17 C 2.110980 1.895350 1.185910 0
M  V30 18 C 2.415500 -1.689950 0.981520 0
M  V30 19 C -1.798730 -2.336090 0.650880 0
M  V30 20 H -1.361320 3.601700 -1.074510 0
M  V30 21 H -0.535470 2.396720 -2.080490 0
M  V30 22 H 0.333000 3.381730 0.677810 0
M  V30 23 H 1.121680 3.719640 -0.851460 0
M  V30 24 H 3.048100 2.449420 -1.196230 0
M  V30 25 H 1.815520 1.616140 -2.161130 0
M  V30 26 H 3.934800 0.405540 -2.043660 0
M  V30 27 H 3.892270 0.303400 -0.314690 0
M  V30 28 H 1.986820 -1.059790 -2.304980 0
M  V30 29 H 3.341130 -1.823110 -1.451420 0
M  V30 30 H 1.624850 -3.398790 -1.189680 0
M  V30 31 H 0.790910 -3.296840 0.352750 0
M  V30 32 H -0.840700 -3.593100 -1.449750 0
M  V30 33 H -0.194400 -2.194490 -2.321340 0
M  V30 34 H -3.115750 -2.269220 -1.503810 0
M  V30 35 H -2.118810 -1.231870 -2.498860 0
M  V30 36 H -3.624460 -0.247720 -0.002000 0
M  V30 37 H -4.237800 -0.198610 -1.629480 0
M  V30 38 H -2.287570 1.210750 -2.359250 0
M  V30 39 H -3.421560 1.982390 -1.267950 0
M  V30 40 H -2.770600 2.847860 0.759500 0
M  V30 41 H -1.286110 2.286650 1.563130 0
M  V30 42 H -2.637350 1.167830 1.338710 0
M  V30 43 H 2.734910 2.796840 1.157130 0
M  V30 44 H 2.745110 1.038810 1.387940 0
M  V30 45 H 1.386890 1.989660 1.994440 0
M  V30 46 H 3.145980 -2.491430 0.816470 0
M  V30 47 H 1.745010 -1.973100 1.788780 0
M  V30 48 H 2.954870 -0.791900 1.264880 0
M  V30 49 H -2.350280 -3.250130 0.402130 0
M  V30 50 H -2.463500 -1.650510 1.175680 0
M  V30 51 H -0.971450 -2.577520 1.311380 0
M  V30 52 C -0.244770 -0.360690 2.875440 0
M  V30 53 N -0.155730 -0.058450 1.532010 0 RAD=2 VAL=2
M  V30 54 C -0.651970 0.688630 3.868200 0
M  V30 55 H -0.426920 0.319390 4.871820 0
M  V30 56 H -0.133230 1.637270 3.698700 0
M  V30 57 H -1.730550 0.872570 3.795300 0
M  V30 58 O 0.018810 -1.532490 3.147050 0
M  V30 59 O 0.170430 0.152190 -1.983140 0
M  V30 60 H -0.625720 0.007230 -2.518470 0
M  V30 END ATOM
M  V30 BEGIN BOND
M  V30 1 1 60 59
M  V30 2 1 35 13
M  V30 3 1 38 15
M  V30 4 1 33 12
M  V30 5 1 28 10
M  V30 6 1 25 8
M  V30 7 1 21 6
M  V30 8 1 26 9
M  V30 9 1 59 1
M  V30 10 1 37 14
M  V30 11 1 34 13
M  V30 12 1 13 14
M  V30 13 1 13 5
M  V30 14 1 29 10
M  V30 15 1 32 12
M  V30 16 1 10 9
M  V30 17 1 10 4
M  V30 18 1 15 39
M  V30 19 1 15 14
M  V30 20 1 15 2
M  V30 21 1 12 5
M  V30 22 1 12 11
M  V30 23 1 8 9
M  V30 24 1 8 24
M  V30 25 1 8 3
M  V30 26 1 9 27
M  V30 27 1 30 11
M  V30 28 1 20 6
M  V30 29 1 6 2
M  V30 30 1 6 7
M  V30 31 1 14 36
M  V30 32 1 23 7
M  V30 33 1 5 19
M  V30 34 1 11 4
M  V30 35 1 11 31
M  V30 36 1 2 16
M  V30 37 1 7 3
M  V30 38 1 7 22
M  V30 39 1 4 18
M  V30 40 1 1 53
M  V30 41 1 3 17
M  V30 42 1 49 19
M  V30 43 1 19 50
M  V30 44 1 19 51
M  V30 45 1 40 16
M  V30 46 1 46 18
M  V30 47 1 16 42
M  V30 48 1 16 41
M  V30 49 1 18 48
M  V30 50 1 18 47
M  V30 51 1 43 17
M  V30 52 1 17 44
M  V30 53 1 17 45
M  V30 54 1 53 52
M  V30 55 2 52 58
M  V30 56 1 52 54
M  V30 57 1 56 54
M  V30 58 1 57 54
M  V30 59 1 54 55
M  V30 60 9 2 1
M  V30 61 9 3 1
M  V30 62 9 4 1
M  V30 63 9 5 1
M  V30 END BOND
M  V30 END CTAB
M  END
