
     RDKit          3D

  0  0  0  0  0  0  0  0  0  0999 V3000
M  V30 BEGIN CTAB
M  V30 COUNTS 46 51 0 0 0
M  V30 BEGIN ATOM
M  V30 1 Fe 0.241220 0.332650 -0.866560 0 CHG=1 VAL=6
M  V30 2 N 0.433680 -1.905420 -0.438060 0
M  V30 3 N -0.259750 0.098840 1.395350 0
M  V30 4 N 2.301810 0.049730 -0.251740 0
M  V30 5 N -1.819410 -0.391230 -0.919960 0
M  V30 6 C -0.749330 1.093940 2.152760 0
M  V30 7 C -1.343260 0.870560 3.391840 0
M  V30 8 C -1.446580 -0.442810 3.851770 0
M  V30 9 C -0.939910 -1.476400 3.064440 0
M  V30 10 C -0.342980 -1.164230 1.842400 0
M  V30 11 C 0.321500 -2.238300 1.003590 0
M  V30 12 C 3.106700 1.024450 0.194290 0
M  V30 13 C 4.443110 0.789930 0.507560 0
M  V30 14 C 4.944910 -0.502950 0.354250 0
M  V30 15 C 4.099310 -1.515470 -0.105260 0
M  V30 16 C 2.777260 -1.201460 -0.409260 0
M  V30 17 C 1.787330 -2.204490 -0.965350 0
M  V30 18 C -2.905730 0.381820 -0.789660 0
M  V30 19 C -4.192150 -0.151710 -0.774580 0
M  V30 20 C -4.339280 -1.534450 -0.887440 0
M  V30 21 C -3.201890 -2.335020 -1.016600 0
M  V30 22 C -1.949690 -1.726310 -1.037250 0
M  V30 23 C -0.657800 -2.485910 -1.253280 0
M  V30 24 H -0.662730 2.090440 1.734580 0
M  V30 25 H -1.721520 1.705760 3.971360 0
M  V30 26 H -1.915570 -0.660200 4.806660 0
M  V30 27 H -1.001740 -2.509740 3.392510 0
M  V30 28 H -0.194810 -3.197470 1.136100 0
M  V30 29 H 1.334900 -2.374050 1.397640 0
M  V30 30 H 2.649510 2.004090 0.290180 0
M  V30 31 H 5.068460 1.601290 0.863600 0
M  V30 32 H 5.980570 -0.723830 0.593930 0
M  V30 33 H 4.459150 -2.531980 -0.229400 0
M  V30 34 H 1.746290 -2.073190 -2.050110 0
M  V30 35 H 2.097800 -3.234140 -0.742730 0
M  V30 36 H -2.717460 1.446500 -0.694540 0
M  V30 37 H -5.050950 0.502740 -0.672770 0
M  V30 38 H -5.326270 -1.986650 -0.872000 0
M  V30 39 H -3.284020 -3.413760 -1.104510 0
M  V30 40 H -0.790270 -3.557520 -1.051880 0
M  V30 41 H -0.373450 -2.358000 -2.301930 0
M  V30 42 O 0.561990 -0.093550 -2.628620 0
M  V30 43 H 0.559300 0.627380 -3.279120 0
M  V30 44 N -0.000460 2.234180 -0.748500 0
M  V30 45 C -0.290150 3.390870 -0.600320 0
M  V30 46 S -0.684020 4.919170 -0.376930 0
M  V30 END ATOM
M  V30 BEGIN BOND
M  V30 1 1 43 42
M  V30 2 1 42 1
M  V30 3 1 41 23
M  V30 4 1 34 17
M  V30 5 1 23 40
M  V30 6 1 23 22
M  V30 7 1 23 2
M  V30 8 1 39 21
M  V30 9 1 22 21
M  V30 10 2 22 5
M  V30 11 2 21 20
M  V30 12 1 17 35
M  V30 13 1 17 2
M  V30 14 1 17 16
M  V30 15 1 5 18
M  V30 16 1 20 38
M  V30 17 1 20 19
M  V30 18 1 1 44
M  V30 19 2 18 19
M  V30 20 1 18 36
M  V30 21 1 19 37
M  V30 22 2 44 45
M  V30 23 2 45 46
M  V30 24 1 2 11
M  V30 25 2 16 4
M  V30 26 1 16 15
M  V30 27 1 4 12
M  V30 28 1 33 15
M  V30 29 2 15 14
M  V30 30 1 12 30
M  V30 31 2 12 13
M  V30 32 1 14 13
M  V30 33 1 14 32
M  V30 34 1 13 31
M  V30 35 1 11 28
M  V30 36 1 11 29
M  V30 37 1 11 10
M  V30 38 2 3 10
M  V30 39 1 3 6
M  V30 40 1 24 6
M  V30 41 1 10 9
M  V30 42 2 6 7
M  V30 43 1 9 27
M  V30 44 2 9 8
M  V30 45 1 7 8
M  V30 46 1 7 25
M  V30 47 1 8 26
M  V30 48 9 2 1
M  V30 49 9 3 1
M  V30 50 9 4 1
M  V30 51 9 5 1
M  V30 END BOND
M  V30 END CTAB
M  END
