
     RDKit          3D

  0  0  0  0  0  0  0  0  0  0999 V3000
M  V30 BEGIN CTAB
M  V30 COUNTS 46 50 0 0 0
M  V30 BEGIN ATOM
M  V30 1 Fe -0.314770 -0.001190 -0.287960 0 CHG=1 RAD=2 VAL=5
M  V30 2 N 0.085500 -0.000800 1.989200 0
M  V30 3 N 1.953500 -0.000100 -0.091000 0
M  V30 4 N -0.020500 -2.102700 0.232600 0
M  V30 5 N -0.019800 2.100700 0.231200 0
M  V30 6 C 2.774800 0.001800 -1.156200 0
M  V30 7 C 4.159100 0.005400 -1.029800 0
M  V30 8 C 4.708900 0.007500 0.254500 0
M  V30 9 C 3.855500 0.005600 1.354900 0
M  V30 10 C 2.474200 0.001700 1.142900 0
M  V30 11 C 1.527600 -0.001700 2.333600 0
M  V30 12 C 0.308500 -3.066600 -0.638100 0
M  V30 13 C 0.492300 -4.388700 -0.240900 0
M  V30 14 C 0.335500 -4.704600 1.109000 0
M  V30 15 C 0.000100 -3.694100 2.013100 0
M  V30 16 C -0.179300 -2.397500 1.537500 0
M  V30 17 C -0.605500 -1.238900 2.414600 0
M  V30 18 C 0.309400 3.063800 -0.640200 0
M  V30 19 C 0.494900 4.386000 -0.243600 0
M  V30 20 C 0.339700 4.702600 1.106300 0
M  V30 21 C 0.004100 3.692700 2.011100 0
M  V30 22 C -0.177100 2.396100 1.536100 0
M  V30 23 C -0.604000 1.238400 2.414000 0
M  V30 24 H 2.277300 0.000300 -2.120500 0
M  V30 25 H 4.786900 0.006800 -1.914300 0
M  V30 26 H 5.785500 0.010500 0.395800 0
M  V30 27 H 4.249900 0.007100 2.367100 0
M  V30 28 H 1.753000 0.871900 2.956900 0
M  V30 29 H 1.752800 -0.879600 2.951000 0
M  V30 30 H 0.423500 -2.747000 -1.669100 0
M  V30 31 H 0.754200 -5.145300 -0.972500 0
M  V30 32 H 0.476700 -5.723500 1.456600 0
M  V30 33 H -0.124400 -3.907600 3.070000 0
M  V30 34 H -1.675900 -1.077800 2.256500 0
M  V30 35 H -0.434200 -1.462600 3.476400 0
M  V30 36 H 0.423100 2.743700 -1.671100 0
M  V30 37 H 0.756900 5.142000 -0.975800 0
M  V30 38 H 0.482300 5.721400 1.453300 0
M  V30 39 H -0.119300 3.906800 3.068000 0
M  V30 40 H -0.432100 1.462500 3.475600 0
M  V30 41 H -1.674600 1.078300 2.256400 0
M  V30 42 O -2.107600 -0.000700 0.125700 0 RAD=2 VAL=1
M  V30 43 H -2.790300 -0.001200 -0.563800 0
M  V30 44 N -0.152200 -0.001900 -2.206300 0
M  V30 45 N -0.981200 -0.002400 -3.100400 0 CHG=1 VAL=4
M  V30 46 N -1.730800 -0.002800 -3.970500 0 CHG=-1 VAL=2
M  V30 END ATOM
M  V30 BEGIN BOND
M  V30 1 2 46 45
M  V30 2 2 45 44
M  V30 3 1 24 6
M  V30 4 1 25 7
M  V30 5 1 36 18
M  V30 6 1 30 12
M  V30 7 1 6 7
M  V30 8 2 6 3
M  V30 9 2 7 8
M  V30 10 1 37 19
M  V30 11 1 31 13
M  V30 12 1 18 19
M  V30 13 2 18 5
M  V30 14 1 12 13
M  V30 15 2 12 4
M  V30 16 1 43 42
M  V30 17 2 19 20
M  V30 18 2 13 14
M  V30 19 1 3 10
M  V30 20 1 5 22
M  V30 21 1 4 16
M  V30 22 1 8 26
M  V30 23 1 8 9
M  V30 24 1 20 38
M  V30 25 1 20 21
M  V30 26 1 14 32
M  V30 27 1 14 15
M  V30 28 2 10 9
M  V30 29 1 10 11
M  V30 30 1 9 27
M  V30 31 2 22 21
M  V30 32 1 22 23
M  V30 33 2 16 15
M  V30 34 1 16 17
M  V30 35 1 2 11
M  V30 36 1 2 23
M  V30 37 1 2 17
M  V30 38 1 21 39
M  V30 39 1 15 33
M  V30 40 1 41 23
M  V30 41 1 34 17
M  V30 42 1 11 29
M  V30 43 1 11 28
M  V30 44 1 23 40
M  V30 45 1 17 35
M  V30 46 1 1 44
M  V30 47 9 2 1
M  V30 48 9 3 1
M  V30 49 9 4 1
M  V30 50 9 5 1
M  V30 END BOND
M  V30 END CTAB
M  END
