
     RDKit          3D

  0  0  0  0  0  0  0  0  0  0999 V3000
M  V30 BEGIN CTAB
M  V30 COUNTS 44 49 0 0 0
M  V30 BEGIN ATOM
M  V30 1 Fe -0.196580 -0.572560 0.864140 0 CHG=1 VAL=6
M  V30 2 O -0.138070 -0.112530 2.638940 0
M  V30 3 N -0.198620 -0.499980 -1.478190 0
M  V30 4 N 0.319230 1.533610 0.361830 0
M  V30 5 N -2.218620 -0.120420 0.293800 0
M  V30 6 N 1.875720 -0.830820 0.309190 0
M  V30 7 Cl -0.567120 -2.835690 0.888590 0
M  V30 8 C 0.686060 2.396270 1.325240 0
M  V30 9 C 1.240820 3.638060 1.031940 0
M  V30 10 C 1.434030 3.982200 -0.307170 0
M  V30 11 C 1.054380 3.081160 -1.301690 0
M  V30 12 C 0.488110 1.862360 -0.927620 0
M  V30 13 C -0.041840 0.892640 -1.965500 0
M  V30 14 C -3.104290 0.394130 1.160830 0
M  V30 15 C -4.426920 0.634680 0.800620 0
M  V30 16 C -4.826940 0.334080 -0.502260 0
M  V30 17 C -3.897280 -0.195750 -1.399960 0
M  V30 18 C -2.594010 -0.420840 -0.964850 0
M  V30 19 C -1.525780 -1.054730 -1.832220 0
M  V30 20 C 2.876800 -0.657130 1.184320 0
M  V30 21 C 4.211070 -0.766650 0.803330 0
M  V30 22 C 4.499730 -1.052650 -0.531760 0
M  V30 23 C 3.450840 -1.224570 -1.437770 0
M  V30 24 C 2.140430 -1.114160 -0.979710 0
M  V30 25 C 0.932410 -1.376050 -1.854660 0
M  V30 26 H 0.528290 2.043840 2.338940 0
M  V30 27 H 1.521740 4.310850 1.834960 0
M  V30 28 H 1.876190 4.937270 -0.574410 0
M  V30 29 H 1.189900 3.319110 -2.352490 0
M  V30 30 H 0.590370 0.917490 -2.862160 0
M  V30 31 H -1.028350 1.257830 -2.273130 0
M  V30 32 H -2.714910 0.602460 2.152000 0
M  V30 33 H -5.120720 1.048390 1.524180 0
M  V30 34 H -5.849850 0.513180 -0.819110 0
M  V30 35 H -4.178600 -0.436250 -2.420330 0
M  V30 36 H -1.505440 -2.125980 -1.611020 0
M  V30 37 H -1.756790 -0.926660 -2.898430 0
M  V30 38 H 2.571450 -0.423590 2.199100 0
M  V30 39 H 4.998980 -0.626720 1.535280 0
M  V30 40 H 5.529040 -1.138640 -0.866330 0
M  V30 41 H 3.644690 -1.447220 -2.482270 0
M  V30 42 H 1.189570 -1.277450 -2.918140 0
M  V30 43 H 0.617650 -2.408740 -1.673220 0
M  V30 44 H -0.276180 -0.840520 3.268540 0
M  V30 END ATOM
M  V30 BEGIN BOND
M  V30 1 1 42 25
M  V30 2 1 37 19
M  V30 3 1 30 13
M  V30 4 1 41 23
M  V30 5 1 35 17
M  V30 6 1 29 11
M  V30 7 1 31 13
M  V30 8 1 13 3
M  V30 9 1 13 12
M  V30 10 1 25 43
M  V30 11 1 25 3
M  V30 12 1 25 24
M  V30 13 1 19 36
M  V30 14 1 19 3
M  V30 15 1 19 18
M  V30 16 1 23 24
M  V30 17 2 23 22
M  V30 18 1 17 18
M  V30 19 2 17 16
M  V30 20 1 11 12
M  V30 21 2 11 10
M  V30 22 2 24 6
M  V30 23 2 18 5
M  V30 24 2 12 4
M  V30 25 1 40 22
M  V30 26 1 34 16
M  V30 27 1 28 10
M  V30 28 1 22 21
M  V30 29 1 16 15
M  V30 30 1 10 9
M  V30 31 1 5 14
M  V30 32 1 6 20
M  V30 33 1 4 8
M  V30 34 2 15 14
M  V30 35 1 15 33
M  V30 36 2 21 20
M  V30 37 1 21 39
M  V30 38 1 1 7
M  V30 39 1 1 2
M  V30 40 2 9 8
M  V30 41 1 9 27
M  V30 42 1 14 32
M  V30 43 1 20 38
M  V30 44 1 8 26
M  V30 45 1 2 44
M  V30 46 9 3 1
M  V30 47 9 4 1
M  V30 48 9 5 1
M  V30 49 9 6 1
M  V30 END BOND
M  V30 END CTAB
M  END
