
     RDKit          3D

  0  0  0  0  0  0  0  0  0  0999 V3000
M  V30 BEGIN CTAB
M  V30 COUNTS 44 49 0 0 0
M  V30 BEGIN ATOM
M  V30 1 Fe -0.005040 -0.662180 1.031140 0 CHG=1 VAL=6
M  V30 2 O -0.003650 0.059590 2.723220 0
M  V30 3 N -0.005450 -0.933610 -1.293870 0
M  V30 4 N 0.006080 1.418540 0.180710 0
M  V30 5 N -2.091450 -0.567620 0.461110 0
M  V30 6 N 2.082930 -0.582980 0.463440 0
M  V30 7 F -0.011640 -2.453840 1.112730 0
M  V30 8 C 0.014330 2.492200 0.992020 0
M  V30 9 C 0.027060 3.791380 0.497670 0
M  V30 10 C 0.031850 3.976780 -0.887180 0
M  V30 11 C 0.023450 2.860750 -1.720930 0
M  V30 12 C 0.010240 1.586880 -1.147610 0
M  V30 13 C -0.002180 0.349150 -2.032310 0
M  V30 14 C -3.041670 -0.017970 1.229270 0
M  V30 15 C -4.367300 0.062640 0.809980 0
M  V30 16 C -4.697240 -0.438760 -0.449700 0
M  V30 17 C -3.698730 -1.005710 -1.246080 0
M  V30 18 C -2.397750 -1.061970 -0.753480 0
M  V30 19 C -1.246480 -1.714910 -1.490620 0
M  V30 20 C 3.036340 -0.040500 1.232690 0
M  V30 21 C 4.362400 0.033400 0.813440 0
M  V30 22 C 4.689290 -0.467060 -0.447390 0
M  V30 23 C 3.687450 -1.026530 -1.244900 0
M  V30 24 C 2.386230 -1.076390 -0.752270 0
M  V30 25 C 1.231280 -1.721640 -1.490420 0
M  V30 26 H 0.010720 2.262150 2.052260 0
M  V30 27 H 0.033320 4.633770 1.180890 0
M  V30 28 H 0.042100 4.976410 -1.311170 0
M  V30 29 H 0.026940 2.970850 -2.801570 0
M  V30 30 H 0.869360 0.387450 -2.697050 0
M  V30 31 H -0.882540 0.397850 -2.684600 0
M  V30 32 H -2.701840 0.357180 2.189430 0
M  V30 33 H -5.116170 0.509740 1.454570 0
M  V30 34 H -5.719480 -0.386970 -0.812010 0
M  V30 35 H -3.925910 -1.402150 -2.230620 0
M  V30 36 H -1.080750 -2.696280 -1.037190 0
M  V30 37 H -1.485480 -1.854050 -2.553730 0
M  V30 38 H 2.698710 0.334780 2.193570 0
M  V30 39 H 5.113900 0.474730 1.458930 0
M  V30 40 H 5.711770 -0.420300 -0.809730 0
M  V30 41 H 3.912270 -1.422130 -2.230320 0
M  V30 42 H 1.469910 -1.861380 -2.553540 0
M  V30 43 H 1.059680 -2.702400 -1.037820 0
M  V30 44 H -0.007630 -0.565670 3.466820 0
M  V30 END ATOM
M  V30 BEGIN BOND
M  V30 1 1 29 11
M  V30 2 1 30 13
M  V30 3 1 31 13
M  V30 4 1 37 19
M  V30 5 1 42 25
M  V30 6 1 35 17
M  V30 7 1 41 23
M  V30 8 1 13 3
M  V30 9 1 13 12
M  V30 10 1 11 12
M  V30 11 2 11 10
M  V30 12 1 19 3
M  V30 13 1 19 36
M  V30 14 1 19 18
M  V30 15 1 25 3
M  V30 16 1 25 43
M  V30 17 1 25 24
M  V30 18 1 28 10
M  V30 19 1 17 18
M  V30 20 2 17 16
M  V30 21 1 23 24
M  V30 22 2 23 22
M  V30 23 2 12 4
M  V30 24 1 10 9
M  V30 25 1 34 16
M  V30 26 1 40 22
M  V30 27 2 18 5
M  V30 28 2 24 6
M  V30 29 1 16 15
M  V30 30 1 22 21
M  V30 31 1 4 8
M  V30 32 1 5 14
M  V30 33 1 6 20
M  V30 34 2 9 8
M  V30 35 1 9 27
M  V30 36 2 15 14
M  V30 37 1 15 33
M  V30 38 2 21 20
M  V30 39 1 21 39
M  V30 40 1 8 26
M  V30 41 1 1 7
M  V30 42 1 1 2
M  V30 43 1 14 32
M  V30 44 1 20 38
M  V30 45 1 2 44
M  V30 46 9 3 1
M  V30 47 9 4 1
M  V30 48 9 5 1
M  V30 49 9 6 1
M  V30 END BOND
M  V30 END CTAB
M  END
