
     RDKit          3D

  0  0  0  0  0  0  0  0  0  0999 V3000
M  V30 BEGIN CTAB
M  V30 COUNTS 57 61 0 0 0
M  V30 BEGIN ATOM
M  V30 1 Fe 0.333510 -0.011250 0.238870 0 CHG=1 VAL=6
M  V30 2 N -0.874160 -1.000340 1.861650 0
M  V30 3 N 0.018950 1.803760 1.509300 0
M  V30 4 N 1.274140 1.220280 -1.468010 0
M  V30 5 N 0.522590 -1.701690 -1.198050 0
M  V30 6 C -1.716080 0.135680 2.333660 0
M  V30 7 C -0.871200 1.372780 2.641970 0
M  V30 8 C -0.684850 2.822560 0.659700 0
M  V30 9 C 0.042600 3.300790 -0.610820 0
M  V30 10 C 0.306760 2.321630 -1.771580 0
M  V30 11 C 1.374950 0.237110 -2.600350 0
M  V30 12 C 0.453330 -0.984310 -2.507730 0
M  V30 13 C -0.646950 -2.633520 -1.060310 0
M  V30 14 C -0.970880 -3.083820 0.375640 0
M  V30 15 C -1.720730 -2.084540 1.273460 0
M  V30 16 C -0.078130 -1.549910 2.985770 0
M  V30 17 C 1.261440 2.373020 2.088420 0
M  V30 18 C 2.624790 1.808960 -1.275480 0
M  V30 19 C 1.787450 -2.478400 -1.020500 0
M  V30 20 S 2.422130 -0.695940 1.038770 0
M  V30 21 C 2.949890 -1.694610 -0.409760 0
M  V30 22 H -2.270030 -0.147210 3.240680 0
M  V30 23 H -2.442400 0.360240 1.555100 0
M  V30 24 H -0.229880 1.175680 3.502690 0
M  V30 25 H -1.534910 2.198460 2.928120 0
M  V30 26 H -0.867300 3.708400 1.286610 0
M  V30 27 H -1.650740 2.398580 0.390760 0
M  V30 28 H -0.607210 4.078780 -1.030780 0
M  V30 29 H 0.962860 3.826790 -0.339010 0
M  V30 30 H -0.626930 1.863160 -2.089620 0
M  V30 31 H 0.701720 2.904610 -2.617710 0
M  V30 32 H 1.172330 0.746160 -3.552280 0
M  V30 33 H 2.411570 -0.098030 -2.645850 0
M  V30 34 H 0.712680 -1.669860 -3.327430 0
M  V30 35 H -0.579100 -0.674270 -2.650100 0
M  V30 36 H -0.446940 -3.521770 -1.676040 0
M  V30 37 H -1.520260 -2.138500 -1.483920 0
M  V30 38 H -0.073960 -3.455640 0.882000 0
M  V30 39 H -1.628920 -3.955090 0.274610 0
M  V30 40 H -2.521230 -1.615730 0.701370 0
M  V30 41 H -2.190910 -2.636030 2.100220 0
M  V30 42 H -0.740540 -1.891260 3.793590 0
M  V30 43 H 0.606840 -0.796140 3.372860 0
M  V30 44 H 0.530630 -2.381240 2.634920 0
M  V30 45 H 1.034050 3.245010 2.717010 0
M  V30 46 H 1.945210 2.671780 1.298830 0
M  V30 47 H 1.764670 1.614260 2.689310 0
M  V30 48 H 2.984090 2.257760 -2.212160 0
M  V30 49 H 3.324520 1.046070 -0.941560 0
M  V30 50 H 2.600670 2.583750 -0.514030 0
M  V30 51 H 2.086530 -2.916660 -1.983600 0
M  V30 52 H 1.562560 -3.306380 -0.347600 0
M  V30 53 H 3.713460 -2.403040 -0.074990 0
M  V30 54 H 3.431480 -1.038170 -1.138320 0
M  V30 55 N -1.468090 0.276590 -0.641960 0
M  V30 56 C -2.566230 0.283730 -1.117560 0
M  V30 57 S -4.039440 0.269990 -1.745150 0
M  V30 END ATOM
M  V30 BEGIN BOND
M  V30 1 1 32 11
M  V30 2 1 34 12
M  V30 3 1 35 12
M  V30 4 1 33 11
M  V30 5 1 31 10
M  V30 6 1 11 12
M  V30 7 1 11 4
M  V30 8 1 12 5
M  V30 9 1 48 18
M  V30 10 1 30 10
M  V30 11 1 51 19
M  V30 12 1 10 4
M  V30 13 1 10 9
M  V30 14 2 57 56
M  V30 15 1 36 13
M  V30 16 1 37 13
M  V30 17 1 4 18
M  V30 18 1 18 49
M  V30 19 1 18 50
M  V30 20 1 5 13
M  V30 21 1 5 19
M  V30 22 1 54 21
M  V30 23 2 56 55
M  V30 24 1 13 14
M  V30 25 1 28 9
M  V30 26 1 19 21
M  V30 27 1 19 52
M  V30 28 1 55 1
M  V30 29 1 9 29
M  V30 30 1 9 8
M  V30 31 1 21 53
M  V30 32 1 21 20
M  V30 33 1 1 20
M  V30 34 1 39 14
M  V30 35 1 14 38
M  V30 36 1 14 15
M  V30 37 1 27 8
M  V30 38 1 8 26
M  V30 39 1 8 3
M  V30 40 1 40 15
M  V30 41 1 15 2
M  V30 42 1 15 41
M  V30 43 1 46 17
M  V30 44 1 3 17
M  V30 45 1 3 7
M  V30 46 1 23 6
M  V30 47 1 2 6
M  V30 48 1 2 16
M  V30 49 1 17 47
M  V30 50 1 17 45
M  V30 51 1 6 7
M  V30 52 1 6 22
M  V30 53 1 44 16
M  V30 54 1 7 25
M  V30 55 1 7 24
M  V30 56 1 16 43
M  V30 57 1 16 42
M  V30 58 9 2 1
M  V30 59 9 3 1
M  V30 60 9 4 1
M  V30 61 9 5 1
M  V30 END BOND
M  V30 END CTAB
M  END
