
     RDKit          3D

  0  0  0  0  0  0  0  0  0  0999 V3000
M  V30 BEGIN CTAB
M  V30 COUNTS 55 59 0 0 0
M  V30 BEGIN ATOM
M  V30 1 Fe 0.030370 0.053740 0.308940 0 CHG=1 VAL=6
M  V30 2 N 1.060410 -1.875160 0.759530 0
M  V30 3 N -1.739260 -1.041760 1.100500 0
M  V30 4 N -1.230530 1.855740 -0.331050 0
M  V30 5 N 1.697880 1.158050 -0.631580 0
M  V30 6 C -0.037110 -2.873440 0.587180 0
M  V30 7 C -1.298310 -2.462770 1.350230 0
M  V30 8 C -2.829610 -1.007650 0.063200 0
M  V30 9 C -3.329080 0.379500 -0.383670 0
M  V30 10 C -2.389380 1.342580 -1.136300 0
M  V30 11 C -0.279300 2.684790 -1.158100 0
M  V30 12 C 0.983980 1.972770 -1.667570 0
M  V30 13 C 2.672370 0.215520 -1.288770 0
M  V30 14 C 3.147780 -0.956520 -0.410410 0
M  V30 15 C 2.175630 -2.131290 -0.209750 0
M  V30 16 C 1.594380 -1.957710 2.143520 0
M  V30 17 C -2.245150 -0.489880 2.385540 0
M  V30 18 C -1.781880 2.750380 0.724660 0
M  V30 19 C 2.461490 2.004050 0.340150 0
M  V30 20 S 0.678270 1.145960 2.293500 0
M  V30 21 C 1.661690 2.499140 1.540600 0
M  V30 22 H 0.286400 -3.860200 0.948570 0
M  V30 23 H -0.250130 -2.951270 -0.476450 0
M  V30 24 H -1.132270 -2.566960 2.423860 0
M  V30 25 H -2.110590 -3.151480 1.090460 0
M  V30 26 H -3.692730 -1.549690 0.477490 0
M  V30 27 H -2.462870 -1.561220 -0.798720 0
M  V30 28 H -4.144010 0.167420 -1.087000 0
M  V30 29 H -3.812720 0.891570 0.453990 0
M  V30 30 H -1.989130 0.854820 -2.021280 0
M  V30 31 H -2.986860 2.206930 -1.462940 0
M  V30 32 H -0.808960 3.090650 -2.029000 0
M  V30 33 H 0.012100 3.541060 -0.548690 0
M  V30 34 H 1.662610 2.736600 -2.072960 0
M  V30 35 H 0.717430 1.294980 -2.474320 0
M  V30 36 H 3.545820 0.803800 -1.602860 0
M  V30 37 H 2.197060 -0.179530 -2.184770 0
M  V30 38 H 3.524620 -0.600600 0.554560 0
M  V30 39 H 4.022600 -1.374420 -0.922980 0
M  V30 40 H 1.729210 -2.397470 -1.166750 0
M  V30 41 H 2.742920 -3.000880 0.151110 0
M  V30 42 H 1.961600 -2.972980 2.346400 0
M  V30 43 H 0.821870 -1.703450 2.868540 0
M  V30 44 H 2.405620 -1.243950 2.272550 0
M  V30 45 H -3.111020 -1.067370 2.736180 0
M  V30 46 H -2.535220 0.549770 2.264590 0
M  V30 47 H -1.458360 -0.528330 3.139650 0
M  V30 48 H -2.276740 3.615580 0.262750 0
M  V30 49 H -0.995000 3.094570 1.389610 0
M  V30 50 H -2.512850 2.222950 1.330550 0
M  V30 51 H 2.912960 2.850590 -0.196240 0
M  V30 52 H 3.278990 1.393340 0.722900 0
M  V30 53 H 2.354890 2.877210 2.298100 0
M  V30 54 H 0.997760 3.327030 1.282400 0
M  V30 55 Br -0.345760 -1.058190 -2.236070 0
M  V30 END ATOM
M  V30 BEGIN BOND
M  V30 1 1 35 12
M  V30 2 1 55 1
M  V30 3 1 37 13
M  V30 4 1 34 12
M  V30 5 1 32 11
M  V30 6 1 30 10
M  V30 7 1 12 11
M  V30 8 1 12 5
M  V30 9 1 36 13
M  V30 10 1 31 10
M  V30 11 1 13 5
M  V30 12 1 13 14
M  V30 13 1 40 15
M  V30 14 1 11 33
M  V30 15 1 11 4
M  V30 16 1 10 9
M  V30 17 1 10 4
M  V30 18 1 28 9
M  V30 19 1 39 14
M  V30 20 1 27 8
M  V30 21 1 5 19
M  V30 22 1 23 6
M  V30 23 1 14 15
M  V30 24 1 14 38
M  V30 25 1 9 8
M  V30 26 1 9 29
M  V30 27 1 4 18
M  V30 28 1 15 41
M  V30 29 1 15 2
M  V30 30 1 51 19
M  V30 31 1 8 26
M  V30 32 1 8 3
M  V30 33 1 48 18
M  V30 34 1 1 20
M  V30 35 1 19 52
M  V30 36 1 19 21
M  V30 37 1 6 2
M  V30 38 1 6 22
M  V30 39 1 6 7
M  V30 40 1 18 50
M  V30 41 1 18 49
M  V30 42 1 2 16
M  V30 43 1 25 7
M  V30 44 1 3 7
M  V30 45 1 3 17
M  V30 46 1 54 21
M  V30 47 1 7 24
M  V30 48 1 21 20
M  V30 49 1 21 53
M  V30 50 1 16 44
M  V30 51 1 16 42
M  V30 52 1 16 43
M  V30 53 1 46 17
M  V30 54 1 17 45
M  V30 55 1 17 47
M  V30 56 9 2 1
M  V30 57 9 3 1
M  V30 58 9 4 1
M  V30 59 9 5 1
M  V30 END BOND
M  V30 END CTAB
M  END
