
     RDKit          3D

  0  0  0  0  0  0  0  0  0  0999 V3000
M  V30 BEGIN CTAB
M  V30 COUNTS 56 59 0 0 0
M  V30 BEGIN ATOM
M  V30 1 Fe 0.006970 0.010910 -0.100010 0 CHG=1 VAL=6
M  V30 2 O -0.130750 0.098500 -1.979640 0
M  V30 3 N 0.284900 -0.030120 1.819500 0
M  V30 4 C 0.734830 -0.046620 2.940590 0
M  V30 5 O 1.174380 -0.061610 4.041780 0
M  V30 6 N 1.409920 -1.704330 -0.449650 0
M  V30 7 N -1.538120 -1.659570 0.020290 0
M  V30 8 N -1.565050 1.634230 0.058940 0
M  V30 9 N 1.375430 1.736660 -0.419340 0
M  V30 10 C 0.505940 -2.680230 -1.117100 0
M  V30 11 C -0.788820 -2.911510 -0.334870 0
M  V30 12 C -2.597560 -1.352460 -0.985230 0
M  V30 13 C -3.344460 -0.017320 -0.802680 0
M  V30 14 C -2.591430 1.315440 -0.979330 0
M  V30 15 C -0.836410 2.905130 -0.276220 0
M  V30 16 C 0.451690 2.707310 -1.075860 0
M  V30 17 C 2.469180 1.342280 -1.356730 0
M  V30 18 C 3.203050 0.040230 -0.992220 0
M  V30 19 C 2.487280 -1.263480 -1.385810 0
M  V30 20 C 2.001820 -2.285520 0.776270 0
M  V30 21 C -2.141190 -1.860640 1.361390 0
M  V30 22 C -2.189000 1.812990 1.391510 0
M  V30 23 C 1.945090 2.298030 0.826480 0
M  V30 24 H 1.012240 -3.648340 -1.247830 0
M  V30 25 H 0.283970 -2.289890 -2.108970 0
M  V30 26 H -1.436570 -3.586720 -0.909510 0
M  V30 27 H -0.557180 -3.426210 0.598940 0
M  V30 28 H -2.130000 -1.379260 -1.970280 0
M  V30 29 H -3.344360 -2.161090 -0.961950 0
M  V30 30 H -4.123650 -0.015210 -1.575200 0
M  V30 31 H -3.893950 -0.023140 0.143250 0
M  V30 32 H -3.340720 2.121950 -0.984220 0
M  V30 33 H -2.073690 1.319290 -1.938440 0
M  V30 34 H -1.500610 3.578160 -0.834150 0
M  V30 35 H -0.609470 3.404780 0.667200 0
M  V30 36 H 0.946010 3.682820 -1.194410 0
M  V30 37 H 0.220650 2.306720 -2.060710 0
M  V30 38 H 2.018940 1.228650 -2.343310 0
M  V30 39 H 3.194740 2.167030 -1.404510 0
M  V30 40 H 4.148840 0.052760 -1.546350 0
M  V30 41 H 3.487490 0.029600 0.065170 0
M  V30 42 H 3.225470 -2.074350 -1.468500 0
M  V30 43 H 2.026370 -1.124270 -2.364580 0
M  V30 44 H 2.589600 -3.182210 0.534970 0
M  V30 45 H 2.646660 -1.550590 1.256760 0
M  V30 46 H 1.218750 -2.540160 1.488380 0
M  V30 47 H -2.814510 -2.729120 1.356220 0
M  V30 48 H -1.346260 -2.005990 2.091150 0
M  V30 49 H -2.704330 -0.981940 1.663090 0
M  V30 50 H -2.863120 2.680850 1.391550 0
M  V30 51 H -2.758260 0.930700 1.671660 0
M  V30 52 H -1.405310 1.947450 2.136380 0
M  V30 53 H 2.503160 3.220140 0.613040 0
M  V30 54 H 1.152550 2.505370 1.543180 0
M  V30 55 H 2.613250 1.570730 1.286680 0
M  V30 56 H -0.546620 -0.467090 -2.640880 0
M  V30 END ATOM
M  V30 BEGIN BOND
M  V30 1 1 56 2
M  V30 2 1 43 19
M  V30 3 1 38 17
M  V30 4 1 25 10
M  V30 5 1 37 16
M  V30 6 1 2 1
M  V30 7 1 28 12
M  V30 8 1 33 14
M  V30 9 1 30 13
M  V30 10 1 40 18
M  V30 11 1 42 19
M  V30 12 1 39 17
M  V30 13 1 19 18
M  V30 14 1 19 6
M  V30 15 1 17 18
M  V30 16 1 17 9
M  V30 17 1 24 10
M  V30 18 1 36 16
M  V30 19 1 10 6
M  V30 20 1 10 11
M  V30 21 1 16 9
M  V30 22 1 16 15
M  V30 23 1 18 41
M  V30 24 1 12 29
M  V30 25 1 12 13
M  V30 26 1 12 7
M  V30 27 1 32 14
M  V30 28 1 14 13
M  V30 29 1 14 8
M  V30 30 1 26 11
M  V30 31 1 34 15
M  V30 32 1 13 31
M  V30 33 1 6 20
M  V30 34 1 9 23
M  V30 35 1 11 7
M  V30 36 1 11 27
M  V30 37 1 15 8
M  V30 38 1 15 35
M  V30 39 1 1 3
M  V30 40 1 7 21
M  V30 41 1 8 22
M  V30 42 1 44 20
M  V30 43 1 53 23
M  V30 44 1 20 45
M  V30 45 1 20 46
M  V30 46 1 23 55
M  V30 47 1 23 54
M  V30 48 1 47 21
M  V30 49 1 21 49
M  V30 50 1 21 48
M  V30 51 1 22 50
M  V30 52 1 22 51
M  V30 53 1 22 52
M  V30 54 2 3 4
M  V30 55 2 4 5
M  V30 56 9 6 1
M  V30 57 9 7 1
M  V30 58 9 8 1
M  V30 59 9 9 1
M  V30 END BOND
M  V30 END CTAB
M  END
