
     RDKit          3D

  0  0  0  0  0  0  0  0  0  0999 V3000
M  V30 BEGIN CTAB
M  V30 COUNTS 55 59 0 0 0
M  V30 BEGIN ATOM
M  V30 1 Fe 0.008320 0.089340 0.050610 0 CHG=1 VAL=6
M  V30 2 N -1.011200 2.082160 -0.072790 0
M  V30 3 N 1.838220 1.349090 0.319440 0
M  V30 4 N 1.280620 -1.812900 -0.215520 0
M  V30 5 N -1.668370 -1.257340 -0.524620 0
M  V30 6 C 0.098000 2.926660 -0.595500 0
M  V30 7 C 1.357810 2.767530 0.248450 0
M  V30 8 C 2.721310 1.060850 -0.858500 0
M  V30 9 C 3.248430 -0.375270 -0.994710 0
M  V30 10 C 2.243300 -1.493310 -1.313790 0
M  V30 11 C 0.287890 -2.843420 -0.660870 0
M  V30 12 C -0.948040 -2.271900 -1.347830 0
M  V30 13 C -2.634560 -0.521790 -1.400880 0
M  V30 14 C -3.097690 0.844860 -0.874480 0
M  V30 15 C -2.106900 2.000320 -1.083260 0
M  V30 16 C -1.532910 2.619480 1.204630 0
M  V30 17 C 2.560740 1.170200 1.601340 0
M  V30 18 C 1.998500 -2.372100 0.955400 0
M  V30 19 C -2.382180 -1.829260 0.654690 0
M  V30 20 S -0.578220 -0.393780 2.258950 0
M  V30 21 C -1.547150 -1.925350 1.935680 0
M  V30 22 H -0.196660 3.985960 -0.613130 0
M  V30 23 H 0.290010 2.603160 -1.617830 0
M  V30 24 H 1.169370 3.101590 1.270410 0
M  V30 25 H 2.152780 3.409980 -0.152910 0
M  V30 26 H 3.586660 1.738180 -0.802190 0
M  V30 27 H 2.143040 1.306570 -1.748370 0
M  V30 28 H 3.938800 -0.347410 -1.846940 0
M  V30 29 H 3.875160 -0.641190 -0.138120 0
M  V30 30 H 1.652470 -1.200710 -2.180570 0
M  V30 31 H 2.806740 -2.406290 -1.560270 0
M  V30 32 H 0.772960 -3.552670 -1.346140 0
M  V30 33 H -0.008960 -3.416410 0.217590 0
M  V30 34 H -1.623280 -3.099780 -1.608430 0
M  V30 35 H -0.649360 -1.767640 -2.264960 0
M  V30 36 H -3.508210 -1.168360 -1.565960 0
M  V30 37 H -2.142020 -0.372730 -2.361730 0
M  V30 38 H -3.412730 0.782770 0.172350 0
M  V30 39 H -4.002680 1.101400 -1.437610 0
M  V30 40 H -1.633650 1.885670 -2.058730 0
M  V30 41 H -2.651580 2.955530 -1.076880 0
M  V30 42 H -1.889620 3.650690 1.071840 0
M  V30 43 H -0.759160 2.597470 1.971630 0
M  V30 44 H -2.347530 1.992120 1.562180 0
M  V30 45 H 3.404380 1.870500 1.674230 0
M  V30 46 H 2.936320 0.154780 1.688790 0
M  V30 47 H 1.871770 1.340220 2.430460 0
M  V30 48 H 2.431690 -3.352200 0.710440 0
M  V30 49 H 1.312110 -2.468760 1.795580 0
M  V30 50 H 2.804720 -1.713070 1.265710 0
M  V30 51 H -2.794940 -2.814840 0.393430 0
M  V30 52 H -3.227350 -1.172220 0.864030 0
M  V30 53 H -2.224500 -2.081710 2.780430 0
M  V30 54 H -0.865500 -2.778940 1.920040 0
M  V30 55 F 0.127760 0.309320 -1.803910 0
M  V30 END ATOM
M  V30 BEGIN BOND
M  V30 1 1 37 13
M  V30 2 1 35 12
M  V30 3 1 30 10
M  V30 4 1 40 15
M  V30 5 1 28 9
M  V30 6 1 55 1
M  V30 7 1 27 8
M  V30 8 1 23 6
M  V30 9 1 34 12
M  V30 10 1 36 13
M  V30 11 1 31 10
M  V30 12 1 39 14
M  V30 13 1 13 14
M  V30 14 1 13 5
M  V30 15 1 12 11
M  V30 16 1 12 5
M  V30 17 1 32 11
M  V30 18 1 10 9
M  V30 19 1 10 4
M  V30 20 1 15 41
M  V30 21 1 15 14
M  V30 22 1 15 2
M  V30 23 1 9 8
M  V30 24 1 9 29
M  V30 25 1 14 38
M  V30 26 1 8 26
M  V30 27 1 8 3
M  V30 28 1 11 4
M  V30 29 1 11 33
M  V30 30 1 22 6
M  V30 31 1 6 2
M  V30 32 1 6 7
M  V30 33 1 5 19
M  V30 34 1 4 18
M  V30 35 1 25 7
M  V30 36 1 2 16
M  V30 37 1 1 20
M  V30 38 1 7 3
M  V30 39 1 7 24
M  V30 40 1 3 17
M  V30 41 1 51 19
M  V30 42 1 19 52
M  V30 43 1 19 21
M  V30 44 1 48 18
M  V30 45 1 18 50
M  V30 46 1 18 49
M  V30 47 1 42 16
M  V30 48 1 16 44
M  V30 49 1 16 43
M  V30 50 1 17 45
M  V30 51 1 17 46
M  V30 52 1 17 47
M  V30 53 1 54 21
M  V30 54 1 21 20
M  V30 55 1 21 53
M  V30 56 9 2 1
M  V30 57 9 3 1
M  V30 58 9 4 1
M  V30 59 9 5 1
M  V30 END BOND
M  V30 END CTAB
M  END
