
     RDKit          3D

  0  0  0  0  0  0  0  0  0  0999 V3000
M  V30 BEGIN CTAB
M  V30 COUNTS 64 71 0 0 0
M  V30 BEGIN ATOM
M  V30 1 Fe 0.796850 0.075820 -0.858740 0 VAL=6
M  V30 2 N 1.055250 -2.104730 -0.647410 0
M  V30 3 N 0.283540 2.323940 -0.668620 0
M  V30 4 N 2.802900 0.270160 -0.244370 0
M  V30 5 N 0.815970 0.767070 1.555060 0
M  V30 6 N -1.238810 -0.668810 0.073780 0
M  V30 7 C -0.476040 0.438930 2.165350 0
M  V30 8 H -1.129730 1.305940 2.026540 0
M  V30 9 H -0.386210 0.284730 3.255130 0
M  V30 10 C -1.128630 -0.794170 1.534300 0
M  V30 11 H -0.517480 -1.678430 1.735020 0
M  V30 12 H -2.106080 -0.970900 2.009960 0
M  V30 13 C 1.113030 2.201550 1.606580 0
M  V30 14 H 2.189000 2.324840 1.443120 0
M  V30 15 H 0.887150 2.639500 2.593520 0
M  V30 16 C 0.382330 2.956600 0.513010 0
M  V30 17 C -0.126620 4.242430 0.704160 0
M  V30 18 H -0.045690 4.719620 1.676950 0
M  V30 19 C -0.736010 4.894140 -0.369860 0
M  V30 20 H -1.140250 5.895270 -0.245990 0
M  V30 21 C -0.822780 4.237360 -1.597280 0
M  V30 22 H -1.290710 4.706910 -2.456920 0
M  V30 23 C -0.303290 2.946140 -1.701720 0
M  V30 24 H -0.353970 2.343100 -2.605070 0
M  V30 25 C 1.936580 -0.076960 1.992970 0
M  V30 26 H 1.597720 -1.116720 1.909270 0
M  V30 27 H 2.218370 0.105730 3.044860 0
M  V30 28 C 3.123320 0.117970 1.079430 0
M  V30 29 C 4.430800 0.107690 1.534840 0
M  V30 30 H 4.620540 -0.000640 2.600080 0
M  V30 31 C 5.494210 0.224520 0.622170 0
M  V30 32 H 6.525620 0.211830 0.958090 0
M  V30 33 C 5.167830 0.362100 -0.741930 0
M  V30 34 H 5.943820 0.458760 -1.496120 0
M  V30 35 C 3.839830 0.388070 -1.125380 0
M  V30 36 H 3.547230 0.502910 -2.165590 0
M  V30 37 C -1.358700 -1.984300 -0.590370 0
M  V30 38 H -1.474080 -1.760250 -1.657690 0
M  V30 39 H -2.241170 -2.546660 -0.251260 0
M  V30 40 C -0.100610 -2.791240 -0.396000 0
M  V30 41 C -0.114050 -4.122890 -0.007380 0
M  V30 42 H -1.065390 -4.608510 0.195340 0
M  V30 43 C 1.093930 -4.827160 0.108960 0
M  V30 44 H 1.106990 -5.870570 0.407400 0
M  V30 45 C 2.282860 -4.132710 -0.173570 0
M  V30 46 H 3.249630 -4.623610 -0.106900 0
M  V30 47 C 2.219840 -2.797950 -0.539050 0
M  V30 48 H 3.119090 -2.228310 -0.747990 0
M  V30 49 C -2.269810 0.291860 -0.396730 0
M  V30 50 H -2.096130 0.387780 -1.472960 0
M  V30 51 H -2.034100 1.263560 0.043090 0
M  V30 52 C -3.701400 -0.088880 -0.081150 0
M  V30 53 C -4.314070 0.340240 1.104940 0
M  V30 54 H -3.765120 0.992380 1.781550 0
M  V30 55 C -5.618630 -0.044050 1.421120 0
M  V30 56 H -6.076580 0.300860 2.344650 0
M  V30 57 C -6.335330 -0.864380 0.547390 0
M  V30 58 H -7.351760 -1.163580 0.788980 0
M  V30 59 C -5.742360 -1.289740 -0.644100 0
M  V30 60 H -6.298450 -1.918140 -1.334970 0
M  V30 61 C -4.437920 -0.902490 -0.954020 0
M  V30 62 H -3.982820 -1.226840 -1.886630 0
M  V30 63 O 0.047520 0.195660 -2.631510 0
M  V30 64 H 0.230580 -0.576440 -3.185280 0
M  V30 END ATOM
M  V30 BEGIN BOND
M  V30 1 1 64 63
M  V30 2 1 63 1
M  V30 3 1 24 23
M  V30 4 1 22 21
M  V30 5 1 36 35
M  V30 6 1 62 61
M  V30 7 1 23 21
M  V30 8 2 23 3
M  V30 9 1 38 37
M  V30 10 2 21 19
M  V30 11 1 34 33
M  V30 12 1 50 49
M  V30 13 1 60 59
M  V30 14 1 35 33
M  V30 15 2 35 4
M  V30 16 2 61 59
M  V30 17 1 61 52
M  V30 18 1 48 47
M  V30 19 2 33 31
M  V30 20 1 3 16
M  V30 21 2 2 47
M  V30 22 1 2 40
M  V30 23 1 59 57
M  V30 24 1 37 40
M  V30 25 1 37 39
M  V30 26 1 37 6
M  V30 27 1 47 45
M  V30 28 1 49 52
M  V30 29 1 49 51
M  V30 30 1 49 6
M  V30 31 2 40 41
M  V30 32 1 19 20
M  V30 33 1 19 17
M  V30 34 1 4 28
M  V30 35 1 45 46
M  V30 36 2 45 43
M  V30 37 2 52 53
M  V30 38 1 41 43
M  V30 39 1 41 42
M  V30 40 1 6 10
M  V30 41 1 43 44
M  V30 42 2 16 17
M  V30 43 1 16 13
M  V30 44 1 57 58
M  V30 45 2 57 55
M  V30 46 1 31 32
M  V30 47 1 31 29
M  V30 48 1 17 18
M  V30 49 2 28 29
M  V30 50 1 28 25
M  V30 51 1 53 55
M  V30 52 1 53 54
M  V30 53 1 55 56
M  V30 54 1 14 13
M  V30 55 1 10 11
M  V30 56 1 10 12
M  V30 57 1 10 7
M  V30 58 1 29 30
M  V30 59 1 5 13
M  V30 60 1 5 25
M  V30 61 1 5 7
M  V30 62 1 13 15
M  V30 63 1 26 25
M  V30 64 1 25 27
M  V30 65 1 8 7
M  V30 66 1 7 9
M  V30 67 9 2 1
M  V30 68 9 3 1
M  V30 69 9 4 1
M  V30 70 9 5 1
M  V30 71 9 6 1
M  V30 END BOND
M  V30 END CTAB
M  END
