
     RDKit          3D

  0  0  0  0  0  0  0  0  0  0999 V3000
M  V30 BEGIN CTAB
M  V30 COUNTS 63 70 0 0 0
M  V30 BEGIN ATOM
M  V30 1 Fe 0.861760 -0.094960 0.623790 0 VAL=6
M  V30 2 N 0.992220 2.176130 0.288500 0
M  V30 3 N 0.301360 -2.257410 0.724890 0
M  V30 4 N 2.826100 -0.226240 0.089080 0
M  V30 5 N 0.816440 -0.881300 -1.633800 0
M  V30 6 N -1.238080 0.633640 -0.210910 0
M  V30 7 C -0.482070 -0.587670 -2.250480 0
M  V30 8 H -1.134580 -1.446020 -2.062570 0
M  V30 9 H -0.400970 -0.489360 -3.346730 0
M  V30 10 C -1.127900 0.678360 -1.679620 0
M  V30 11 H -0.507760 1.543360 -1.928900 0
M  V30 12 H -2.105960 0.836740 -2.160090 0
M  V30 13 C 1.097510 -2.319480 -1.567470 0
M  V30 14 H 2.170100 -2.437540 -1.384720 0
M  V30 15 H 0.871450 -2.832720 -2.516870 0
M  V30 16 C 0.359070 -2.976070 -0.417700 0
M  V30 17 C -0.180050 -4.255150 -0.518740 0
M  V30 18 H -0.127170 -4.790430 -1.462780 0
M  V30 19 C -0.778380 -4.834370 0.606630 0
M  V30 20 H -1.205950 -5.831480 0.552240 0
M  V30 21 C -0.812230 -4.102710 1.792500 0
M  V30 22 H -1.261620 -4.507970 2.693820 0
M  V30 23 C -0.266730 -2.819200 1.808410 0
M  V30 24 H -0.285140 -2.183980 2.689180 0
M  V30 25 C 1.942690 -0.094200 -2.167730 0
M  V30 26 H 1.607580 0.950090 -2.191540 0
M  V30 27 H 2.207250 -0.387200 -3.198580 0
M  V30 28 C 3.138460 -0.214410 -1.252120 0
M  V30 29 C 4.439050 -0.298700 -1.714760 0
M  V30 30 H 4.620670 -0.302460 -2.787140 0
M  V30 31 C 5.508710 -0.371280 -0.804470 0
M  V30 32 H 6.535560 -0.430410 -1.149040 0
M  V30 33 C 5.193050 -0.369160 0.568920 0
M  V30 34 H 5.974470 -0.422440 1.321800 0
M  V30 35 C 3.872560 -0.300090 0.969870 0
M  V30 36 H 3.586720 -0.290740 2.017860 0
M  V30 37 C -1.419440 1.979260 0.361750 0
M  V30 38 H -1.575010 1.841120 1.437630 0
M  V30 39 H -2.297190 2.494720 -0.056010 0
M  V30 40 C -0.180120 2.828520 0.199450 0
M  V30 41 C -0.248860 4.211640 0.027010 0
M  V30 42 H -1.216320 4.698900 -0.054750 0
M  V30 43 C 0.935640 4.946720 -0.029340 0
M  V30 44 H 0.909350 6.025220 -0.157750 0
M  V30 45 C 2.151010 4.269720 0.080040 0
M  V30 46 H 3.098550 4.798180 0.044430 0
M  V30 47 C 2.129560 2.884860 0.232260 0
M  V30 48 H 3.043590 2.305550 0.314410 0
M  V30 49 C -2.259450 -0.319830 0.303850 0
M  V30 50 H -2.104390 -0.354590 1.386450 0
M  V30 51 H -2.002890 -1.309390 -0.078770 0
M  V30 52 C -3.695670 0.016910 -0.040530 0
M  V30 53 C -4.287040 -0.476050 -1.212480 0
M  V30 54 H -3.718250 -1.144450 -1.855960 0
M  V30 55 C -5.597120 -0.135570 -1.554670 0
M  V30 56 H -6.039140 -0.529710 -2.466100 0
M  V30 57 C -6.340020 0.703160 -0.721190 0
M  V30 58 H -7.361080 0.967640 -0.982720 0
M  V30 59 C -5.768200 1.190590 0.456740 0
M  V30 60 H -6.345320 1.832150 1.117460 0
M  V30 61 C -4.457890 0.847700 0.793140 0
M  V30 62 H -4.020190 1.218820 1.716590 0
M  V30 63 Cl 0.211440 0.354860 2.935920 0
M  V30 END ATOM
M  V30 BEGIN BOND
M  V30 1 1 9 7
M  V30 2 1 27 25
M  V30 3 1 30 29
M  V30 4 1 15 13
M  V30 5 1 56 55
M  V30 6 1 7 8
M  V30 7 1 7 10
M  V30 8 1 7 5
M  V30 9 1 26 25
M  V30 10 1 25 5
M  V30 11 1 25 28
M  V30 12 1 12 10
M  V30 13 1 11 10
M  V30 14 1 54 53
M  V30 15 1 29 28
M  V30 16 2 29 31
M  V30 17 1 10 6
M  V30 18 1 5 13
M  V30 19 1 13 14
M  V30 20 1 13 16
M  V30 21 2 55 53
M  V30 22 1 55 57
M  V30 23 1 18 17
M  V30 24 2 28 4
M  V30 25 1 53 52
M  V30 26 1 32 31
M  V30 27 1 58 57
M  V30 28 1 31 33
M  V30 29 2 57 59
M  V30 30 1 17 16
M  V30 31 2 17 19
M  V30 32 2 16 3
M  V30 33 1 6 49
M  V30 34 1 6 37
M  V30 35 1 44 43
M  V30 36 1 51 49
M  V30 37 1 39 37
M  V30 38 1 42 41
M  V30 39 1 52 49
M  V30 40 2 52 61
M  V30 41 2 43 41
M  V30 42 1 43 45
M  V30 43 1 41 40
M  V30 44 1 46 45
M  V30 45 2 45 47
M  V30 46 1 4 35
M  V30 47 2 40 2
M  V30 48 1 40 37
M  V30 49 1 47 2
M  V30 50 1 47 48
M  V30 51 1 49 50
M  V30 52 1 37 38
M  V30 53 1 59 61
M  V30 54 1 59 60
M  V30 55 1 20 19
M  V30 56 2 33 35
M  V30 57 1 33 34
M  V30 58 1 19 21
M  V30 59 1 1 63
M  V30 60 1 3 23
M  V30 61 1 61 62
M  V30 62 1 35 36
M  V30 63 2 21 23
M  V30 64 1 21 22
M  V30 65 1 23 24
M  V30 66 9 2 1
M  V30 67 9 3 1
M  V30 68 9 4 1
M  V30 69 9 5 1
M  V30 70 9 6 1
M  V30 END BOND
M  V30 END CTAB
M  END
