
     RDKit          3D

  0  0  0  0  0  0  0  0  0  0999 V3000
M  V30 BEGIN CTAB
M  V30 COUNTS 51 53 0 0 0
M  V30 BEGIN ATOM
M  V30 1 Fe 0.013660 -0.213220 -0.056320 0 VAL=6
M  V30 2 P 2.253160 1.576320 -1.330640 0 VAL=5
M  V30 3 C 3.246550 0.055050 -1.240250 0
M  V30 4 C 3.344490 -0.557890 0.167500 0
M  V30 5 O 2.063240 -0.481200 0.824430 0
M  V30 6 C 3.832980 -2.002450 0.114520 0
M  V30 7 O 2.765490 2.642080 -0.337300 0 RAD=2 VAL=1
M  V30 8 O 0.753120 1.165340 -1.114220 0
M  V30 9 O 2.457440 2.297790 -2.690420 0
M  V30 10 H 4.251800 0.299140 -1.599280 0
M  V30 11 H 4.808880 -2.059310 -0.380440 0
M  V30 12 H 3.935550 -2.416360 1.124170 0
M  V30 13 H 3.115590 -2.614460 -0.441400 0
M  V30 14 H 4.037930 0.053300 0.760050 0
M  V30 15 C -4.468750 2.053580 -2.929230 0
M  V30 16 H -4.709520 1.590570 -3.894750 0
M  V30 17 H -3.944790 2.991110 -3.133430 0
M  V30 18 N -3.995950 -0.097740 -1.676750 0
M  V30 19 H -4.867330 -0.552040 -1.909070 0
M  V30 20 C -3.606280 1.170670 -2.090010 0
M  V30 21 C -2.984700 -0.642250 -0.949700 0
M  V30 22 H -2.990120 -1.635320 -0.527560 0
M  V30 23 N -1.981720 0.206780 -0.867430 0
M  V30 24 C -2.347520 1.334930 -1.570000 0
M  V30 25 H -1.661370 2.162310 -1.670580 0
M  V30 26 C 0.058850 4.202210 3.471480 0
M  V30 27 H 0.874980 4.713670 2.954800 0
M  V30 28 H 0.369100 4.042110 4.511990 0
M  V30 29 N -1.231440 2.036880 3.196060 0
M  V30 30 H -1.834090 2.163010 3.996480 0
M  V30 31 C -0.239220 2.916060 2.776440 0
M  V30 32 C -1.246360 0.969730 2.363010 0
M  V30 33 H -1.902320 0.118610 2.444700 0
M  V30 34 N -0.317440 1.122930 1.436430 0
M  V30 35 C 0.318130 2.325990 1.673000 0
M  V30 36 H 1.116950 2.678060 1.037640 0
M  V30 37 C -2.495840 -2.973400 2.829470 0
M  V30 38 H -3.005710 -2.396620 2.051530 0
M  V30 39 H -2.323870 -2.309630 3.685960 0
M  V30 40 C -1.173970 -3.543210 2.302380 0
M  V30 41 H -0.659640 -4.135790 3.063850 0
M  V30 42 H -1.369520 -4.204320 1.446950 0
M  V30 43 C -0.201970 -2.477630 1.807660 0
M  V30 44 O 1.000940 -2.548030 2.081100 0
M  V30 45 O -0.770460 -1.543730 1.093870 0
M  V30 46 H 2.795650 -0.661340 -1.933950 0
M  V30 47 H 1.886460 -1.291070 1.376940 0
M  V30 48 H -5.415450 2.300150 -2.430940 0
M  V30 49 H -0.808390 4.874930 3.478600 0
M  V30 50 H -3.163630 -3.776350 3.159510 0
M  V30 51 Br 0.331990 -2.004680 -1.759530 0
M  V30 END ATOM
M  V30 BEGIN BOND
M  V30 1 1 16 15
M  V30 2 1 17 15
M  V30 3 1 15 48
M  V30 4 1 15 20
M  V30 5 2 9 2
M  V30 6 1 20 18
M  V30 7 2 20 24
M  V30 8 1 46 3
M  V30 9 1 19 18
M  V30 10 1 51 1
M  V30 11 1 18 21
M  V30 12 1 25 24
M  V30 13 1 10 3
M  V30 14 1 24 23
M  V30 15 1 2 3
M  V30 16 1 2 8
M  V30 17 1 2 7
M  V30 18 1 3 4
M  V30 19 1 8 1
M  V30 20 2 21 23
M  V30 21 1 21 22
M  V30 22 1 13 6
M  V30 23 1 11 6
M  V30 24 1 1 45
M  V30 25 1 6 4
M  V30 26 1 6 12
M  V30 27 1 4 14
M  V30 28 1 4 5
M  V30 29 1 5 47
M  V30 30 1 36 35
M  V30 31 1 45 43
M  V30 32 1 34 35
M  V30 33 2 34 32
M  V30 34 1 42 40
M  V30 35 2 35 31
M  V30 36 2 43 44
M  V30 37 1 43 40
M  V30 38 1 38 37
M  V30 39 1 40 37
M  V30 40 1 40 41
M  V30 41 1 32 33
M  V30 42 1 32 29
M  V30 43 1 31 29
M  V30 44 1 31 26
M  V30 45 1 37 50
M  V30 46 1 37 39
M  V30 47 1 27 26
M  V30 48 1 29 30
M  V30 49 1 26 49
M  V30 50 1 26 28
M  V30 51 9 5 1
M  V30 52 9 23 1
M  V30 53 9 34 1
M  V30 END BOND
M  V30 END CTAB
M  END
