
     RDKit          3D

  0  0  0  0  0  0  0  0  0  0999 V3000
M  V30 BEGIN CTAB
M  V30 COUNTS 53 55 0 0 0
M  V30 BEGIN ATOM
M  V30 1 Fe 0.140820 -0.116410 0.024940 0 VAL=6
M  V30 2 P 2.610250 -0.329760 -1.903520 0 VAL=5
M  V30 3 C 2.593810 -2.044710 -1.291740 0
M  V30 4 C 2.733900 -2.178030 0.234030 0
M  V30 5 O 1.919620 -1.189770 0.908680 0
M  V30 6 C 2.358390 -3.580720 0.702780 0
M  V30 7 O 3.830520 0.448070 -1.360230 0 RAD=2 VAL=1
M  V30 8 O 1.241820 0.314160 -1.506030 0
M  V30 9 O 2.850360 -0.281770 -3.437190 0
M  V30 10 H 3.418410 -2.579820 -1.774230 0
M  V30 11 H 2.982950 -4.329300 0.203130 0
M  V30 12 H 2.495730 -3.683320 1.784750 0
M  V30 13 H 1.308250 -3.782590 0.467990 0
M  V30 14 H 3.772890 -1.953330 0.505470 0
M  V30 15 C -3.241060 2.719120 -3.736730 0
M  V30 16 H -3.928240 2.088940 -4.315500 0
M  V30 17 H -2.404420 2.983370 -4.388880 0
M  V30 18 N -3.560730 1.535130 -1.520040 0
M  V30 19 H -4.569560 1.581760 -1.516070 0
M  V30 20 C -2.728890 2.012600 -2.526020 0
M  V30 21 C -2.795210 0.932760 -0.575040 0
M  V30 22 H -3.173860 0.438110 0.305200 0
M  V30 23 N -1.522800 1.009730 -0.915350 0
M  V30 24 C -1.462890 1.672260 -2.123950 0
M  V30 25 H -0.514160 1.823780 -2.615960 0
M  V30 26 C 0.879560 4.368630 3.316270 0
M  V30 27 H -0.042890 4.206830 3.880260 0
M  V30 28 H 0.828420 5.370140 2.870510 0
M  V30 29 N 2.112640 3.243510 1.408680 0
M  V30 30 H 2.895630 3.881700 1.388630 0
M  V30 31 C 1.029190 3.306180 2.279340 0
M  V30 32 C 1.966170 2.178730 0.590070 0
M  V30 33 H 2.666740 1.883470 -0.178240 0
M  V30 34 N 0.839270 1.551210 0.894990 0
M  V30 35 C 0.247670 2.236010 1.939540 0
M  V30 36 H -0.683230 1.892890 2.360090 0
M  V30 37 C -3.380280 -0.976850 2.824290 0
M  V30 38 H -3.618270 -1.429280 1.855560 0
M  V30 39 H -3.314820 0.108390 2.691820 0
M  V30 40 C -2.068380 -1.539380 3.371140 0
M  V30 41 H -1.826120 -1.089530 4.344030 0
M  V30 42 H -2.141010 -2.617570 3.547920 0
M  V30 43 C -0.845070 -1.332440 2.482240 0
M  V30 44 O 0.171470 -2.012100 2.681520 0
M  V30 45 O -0.962400 -0.391450 1.588460 0
M  V30 46 H 1.649190 -2.488700 -1.621310 0
M  V30 47 H 1.419140 -1.603530 1.671840 0
M  V30 48 H -3.771510 3.645060 -3.479250 0
M  V30 49 H 1.713160 4.361390 4.029840 0
M  V30 50 H -4.206340 -1.187660 3.512440 0
M  V30 51 N -0.538270 -1.764560 -0.725580 0
M  V30 52 C -1.629510 -2.253180 -0.750740 0
M  V30 53 S -3.089830 -2.924760 -0.814950 0
M  V30 END ATOM
M  V30 BEGIN BOND
M  V30 1 1 17 15
M  V30 2 1 16 15
M  V30 3 1 15 48
M  V30 4 1 15 20
M  V30 5 2 9 2
M  V30 6 1 25 24
M  V30 7 2 20 24
M  V30 8 1 20 18
M  V30 9 1 24 23
M  V30 10 1 2 8
M  V30 11 1 2 7
M  V30 12 1 2 3
M  V30 13 1 10 3
M  V30 14 1 46 3
M  V30 15 1 18 19
M  V30 16 1 18 21
M  V30 17 1 8 1
M  V30 18 1 3 4
M  V30 19 2 23 21
M  V30 20 2 53 52
M  V30 21 2 52 51
M  V30 22 1 51 1
M  V30 23 1 21 22
M  V30 24 1 33 32
M  V30 25 1 1 45
M  V30 26 1 11 6
M  V30 27 1 4 14
M  V30 28 1 4 6
M  V30 29 1 4 5
M  V30 30 1 13 6
M  V30 31 2 32 34
M  V30 32 1 32 29
M  V30 33 1 6 12
M  V30 34 1 34 35
M  V30 35 1 5 47
M  V30 36 1 30 29
M  V30 37 1 29 31
M  V30 38 1 45 43
M  V30 39 1 38 37
M  V30 40 2 35 31
M  V30 41 1 35 36
M  V30 42 1 31 26
M  V30 43 2 43 44
M  V30 44 1 43 40
M  V30 45 1 39 37
M  V30 46 1 37 40
M  V30 47 1 37 50
M  V30 48 1 28 26
M  V30 49 1 26 27
M  V30 50 1 26 49
M  V30 51 1 40 42
M  V30 52 1 40 41
M  V30 53 9 5 1
M  V30 54 9 23 1
M  V30 55 9 34 1
M  V30 END BOND
M  V30 END CTAB
M  END
