
     RDKit          3D

  0  0  0  0  0  0  0  0  0  0999 V3000
M  V30 BEGIN CTAB
M  V30 COUNTS 62 66 0 0 0
M  V30 BEGIN ATOM
M  V30 1 Fe -0.535480 0.120080 -0.100240 0 CHG=2 VAL=6
M  V30 2 N 1.073400 0.726320 -1.507980 0
M  V30 3 C 0.958710 -0.260540 -2.655720 0
M  V30 4 H 1.070200 0.275870 -3.603990 0
M  V30 5 H 1.806290 -0.944150 -2.580870 0
M  V30 6 C -0.344180 -1.074070 -2.703430 0
M  V30 7 H -1.172860 -0.445790 -3.021760 0
M  V30 8 H -0.220200 -1.871480 -3.448620 0
M  V30 9 N -0.698820 -1.664180 -1.372000 0
M  V30 10 C -2.122390 -2.154350 -1.352200 0
M  V30 11 H -2.175430 -3.071460 -1.953330 0
M  V30 12 H -2.734670 -1.400200 -1.844150 0
M  V30 13 C -2.693360 -2.447210 0.045240 0
M  V30 14 H -2.141710 -3.256310 0.533150 0
M  V30 15 H -3.693210 -2.861220 -0.132130 0
M  V30 16 C -2.909770 -1.270620 1.015620 0
M  V30 17 H -3.465980 -0.472190 0.523350 0
M  V30 18 H -3.511350 -1.632380 1.860100 0
M  V30 19 N -1.657790 -0.652280 1.591600 0
M  V30 20 C -1.979830 0.541730 2.465960 0
M  V30 21 H -3.026010 0.490420 2.784760 0
M  V30 22 H -1.372410 0.456020 3.368120 0
M  V30 23 C -1.736640 1.900150 1.797300 0
M  V30 24 H -2.509060 2.102450 1.058010 0
M  V30 25 H -1.789320 2.684400 2.564220 0
M  V30 26 N -0.411600 1.958940 1.094770 0
M  V30 27 C -0.335530 3.177490 0.218030 0
M  V30 28 H -0.230700 4.057390 0.866970 0
M  V30 29 H -1.288200 3.262160 -0.301940 0
M  V30 30 C 0.808610 3.196670 -0.809750 0
M  V30 31 H 1.777990 3.243720 -0.301270 0
M  V30 32 H 0.726210 4.164950 -1.318290 0
M  V30 33 C 0.827890 2.149850 -1.941220 0
M  V30 34 H -0.124730 2.151910 -2.470770 0
M  V30 35 H 1.613770 2.428680 -2.656290 0
M  V30 36 C 2.406500 0.589390 -0.871240 0
M  V30 37 H 2.721660 1.550320 -0.459450 0
M  V30 38 H 3.161430 0.308020 -1.611090 0
M  V30 39 C 2.328320 -0.400330 0.284710 0
M  V30 40 O 1.175010 -0.660740 0.747460 0
M  V30 41 N 3.423610 -0.935610 0.800220 0
M  V30 42 C 4.790730 -0.619760 0.349250 0
M  V30 43 H 4.833400 0.332930 -0.177170 0
M  V30 44 H 5.168890 -1.418660 -0.296610 0
M  V30 45 H 5.432820 -0.546260 1.230160 0
M  V30 46 C 3.338530 -1.904900 1.906640 0
M  V30 47 H 4.001970 -2.745070 1.685780 0
M  V30 48 H 2.315540 -2.260170 2.009730 0
M  V30 49 H 3.662620 -1.429800 2.837860 0
M  V30 50 C 0.219540 -2.786100 -1.048390 0
M  V30 51 H 0.070830 -3.610630 -1.756310 0
M  V30 52 H 0.033340 -3.146030 -0.038570 0
M  V30 53 H 1.256410 -2.460120 -1.099040 0
M  V30 54 C -0.928880 -1.655110 2.417380 0
M  V30 55 H -1.572960 -2.013580 3.229360 0
M  V30 56 H -0.030850 -1.201340 2.832160 0
M  V30 57 H -0.623480 -2.499570 1.804700 0
M  V30 58 C 0.694860 1.960890 2.084320 0
M  V30 59 H 0.586760 2.803670 2.778180 0
M  V30 60 H 1.651820 2.054930 1.572350 0
M  V30 61 H 0.704350 1.026390 2.642700 0
M  V30 62 Cl -2.260640 1.080280 -1.290870 0
M  V30 END ATOM
M  V30 BEGIN BOND
M  V30 1 1 4 3
M  V30 2 1 8 6
M  V30 3 1 7 6
M  V30 4 1 6 3
M  V30 5 1 6 9
M  V30 6 1 35 33
M  V30 7 1 3 5
M  V30 8 1 3 2
M  V30 9 1 34 33
M  V30 10 1 11 10
M  V30 11 1 33 2
M  V30 12 1 33 30
M  V30 13 1 12 10
M  V30 14 1 51 50
M  V30 15 1 38 36
M  V30 16 1 2 36
M  V30 17 1 9 10
M  V30 18 1 9 50
M  V30 19 1 10 13
M  V30 20 1 32 30
M  V30 21 1 62 1
M  V30 22 1 53 50
M  V30 23 1 50 52
M  V30 24 1 36 37
M  V30 25 1 36 39
M  V30 26 1 30 31
M  V30 27 1 30 27
M  V30 28 1 29 27
M  V30 29 1 44 42
M  V30 30 1 43 42
M  V30 31 1 15 13
M  V30 32 1 13 14
M  V30 33 1 13 16
M  V30 34 1 27 28
M  V30 35 1 27 26
M  V30 36 2 39 40
M  V30 37 1 39 41
M  V30 38 1 42 41
M  V30 39 1 42 45
M  V30 40 1 17 16
M  V30 41 1 41 46
M  V30 42 1 16 19
M  V30 43 1 16 18
M  V30 44 1 24 23
M  V30 45 1 26 23
M  V30 46 1 26 58
M  V30 47 1 60 58
M  V30 48 1 19 54
M  V30 49 1 19 20
M  V30 50 1 47 46
M  V30 51 1 23 20
M  V30 52 1 23 25
M  V30 53 1 57 54
M  V30 54 1 46 48
M  V30 55 1 46 49
M  V30 56 1 58 61
M  V30 57 1 58 59
M  V30 58 1 54 56
M  V30 59 1 54 55
M  V30 60 1 20 21
M  V30 61 1 20 22
M  V30 62 9 2 1
M  V30 63 9 9 1
M  V30 64 9 19 1
M  V30 65 9 26 1
M  V30 66 9 40 1
M  V30 END BOND
M  V30 END CTAB
M  END
