
     RDKit          3D

  0  0  0  0  0  0  0  0  0  0999 V3000
M  V30 BEGIN CTAB
M  V30 COUNTS 62 66 0 0 0
M  V30 BEGIN ATOM
M  V30 1 Fe -0.354060 -0.031030 0.050520 0 CHG=2 VAL=6
M  V30 2 N 0.926880 1.122170 -1.356140 0
M  V30 3 C 0.799180 0.385690 -2.679560 0
M  V30 4 H 0.643680 1.114410 -3.481690 0
M  V30 5 H 1.758770 -0.095540 -2.876200 0
M  V30 6 C -0.319780 -0.668430 -2.758390 0
M  V30 7 H -1.287890 -0.185940 -2.866460 0
M  V30 8 H -0.147100 -1.278580 -3.655280 0
M  V30 9 N -0.374460 -1.544020 -1.543230 0
M  V30 10 C -1.663080 -2.321980 -1.482110 0
M  V30 11 H -1.624030 -3.106640 -2.248790 0
M  V30 12 H -2.470270 -1.641560 -1.748190 0
M  V30 13 C -1.967390 -2.976360 -0.123860 0
M  V30 14 H -1.210100 -3.724680 0.128140 0
M  V30 15 H -2.886200 -3.553910 -0.281460 0
M  V30 16 C -2.263870 -2.069740 1.086280 0
M  V30 17 H -3.027660 -1.335110 0.830620 0
M  V30 18 H -2.657810 -2.700110 1.894500 0
M  V30 19 N -1.082620 -1.310690 1.646100 0
M  V30 20 C -1.493200 -0.389870 2.778970 0
M  V30 21 H -2.482130 -0.681720 3.146150 0
M  V30 22 H -0.793070 -0.554480 3.599330 0
M  V30 23 C -1.530600 1.102140 2.414760 0
M  V30 24 H -2.423540 1.328090 1.836360 0
M  V30 25 H -1.574320 1.687510 3.342800 0
M  V30 26 N -0.343720 1.525160 1.598770 0
M  V30 27 C -0.562410 2.895280 1.018010 0
M  V30 28 H -0.486720 3.626340 1.834060 0
M  V30 29 H -1.582610 2.929360 0.640120 0
M  V30 30 C 0.410280 3.317020 -0.097090 0
M  V30 31 H 1.423920 3.425250 0.304450 0
M  V30 32 H 0.118220 4.339870 -0.364500 0
M  V30 33 C 0.424400 2.543750 -1.431110 0
M  V30 34 H -0.580600 2.496470 -1.849320 0
M  V30 35 H 1.059540 3.092260 -2.139890 0
M  V30 36 C 2.344870 1.099380 -0.913840 0
M  V30 37 H 2.570350 2.004500 -0.346240 0
M  V30 38 H 3.017750 1.101620 -1.775890 0
M  V30 39 C 2.586430 -0.087120 0.009080 0
M  V30 40 O 1.565960 -0.628470 0.533920 0
M  V30 41 N 3.813970 -0.506330 0.274530 0
M  V30 42 C 5.036950 0.126040 -0.251310 0
M  V30 43 H 4.857160 1.151740 -0.571000 0
M  V30 44 H 5.435090 -0.459110 -1.086440 0
M  V30 45 H 5.781170 0.148690 0.548300 0
M  V30 46 C 4.039330 -1.664560 1.156690 0
M  V30 47 H 4.777430 -2.321200 0.688760 0
M  V30 48 H 3.106590 -2.204450 1.304330 0
M  V30 49 H 4.427150 -1.322600 2.121350 0
M  V30 50 C 0.771660 -2.491100 -1.553430 0
M  V30 51 H 0.661410 -3.203580 -2.379840 0
M  V30 52 H 0.819650 -3.037370 -0.613840 0
M  V30 53 H 1.710560 -1.955080 -1.676120 0
M  V30 54 C -0.075080 -2.275400 2.172190 0
M  V30 55 H -0.527730 -2.903920 2.948430 0
M  V30 56 H 0.771340 -1.731560 2.586230 0
M  V30 57 H 0.296080 -2.908890 1.370770 0
M  V30 58 C 0.878850 1.516720 2.442620 0
M  V30 59 H 0.749730 2.180780 3.306050 0
M  V30 60 H 1.734380 1.862750 1.864080 0
M  V30 61 H 1.093340 0.507050 2.787580 0
M  V30 62 Br -2.555810 0.871170 -0.793530 0
M  V30 END ATOM
M  V30 BEGIN BOND
M  V30 1 1 8 6
M  V30 2 1 4 3
M  V30 3 1 5 3
M  V30 4 1 7 6
M  V30 5 1 6 3
M  V30 6 1 6 9
M  V30 7 1 3 2
M  V30 8 1 51 50
M  V30 9 1 11 10
M  V30 10 1 35 33
M  V30 11 1 34 33
M  V30 12 1 38 36
M  V30 13 1 12 10
M  V30 14 1 53 50
M  V30 15 1 50 9
M  V30 16 1 50 52
M  V30 17 1 9 10
M  V30 18 1 10 13
M  V30 19 1 33 2
M  V30 20 1 33 30
M  V30 21 1 2 36
M  V30 22 1 44 42
M  V30 23 1 36 37
M  V30 24 1 36 39
M  V30 25 1 62 1
M  V30 26 1 43 42
M  V30 27 1 32 30
M  V30 28 1 15 13
M  V30 29 1 42 41
M  V30 30 1 42 45
M  V30 31 1 13 14
M  V30 32 1 13 16
M  V30 33 1 30 31
M  V30 34 1 30 27
M  V30 35 1 39 41
M  V30 36 2 39 40
M  V30 37 1 41 46
M  V30 38 1 29 27
M  V30 39 1 47 46
M  V30 40 1 17 16
M  V30 41 1 27 26
M  V30 42 1 27 28
M  V30 43 1 16 19
M  V30 44 1 16 18
M  V30 45 1 46 48
M  V30 46 1 46 49
M  V30 47 1 57 54
M  V30 48 1 26 23
M  V30 49 1 26 58
M  V30 50 1 19 54
M  V30 51 1 19 20
M  V30 52 1 24 23
M  V30 53 1 60 58
M  V30 54 1 54 56
M  V30 55 1 54 55
M  V30 56 1 23 20
M  V30 57 1 23 25
M  V30 58 1 58 61
M  V30 59 1 58 59
M  V30 60 1 20 21
M  V30 61 1 20 22
M  V30 62 9 2 1
M  V30 63 9 9 1
M  V30 64 9 19 1
M  V30 65 9 26 1
M  V30 66 9 40 1
M  V30 END BOND
M  V30 END CTAB
M  END
