
     RDKit          3D

  0  0  0  0  0  0  0  0  0  0999 V3000
M  V30 BEGIN CTAB
M  V30 COUNTS 56 62 0 0 0
M  V30 BEGIN ATOM
M  V30 1 Fe 0.061560 0.360910 -0.539360 0 CHG=2 VAL=6
M  V30 2 N -1.727480 1.200390 -0.341080 0
M  V30 3 C -1.992290 2.411700 0.189320 0
M  V30 4 H -1.149870 2.945220 0.608940 0
M  V30 5 C -3.276360 2.940100 0.196470 0
M  V30 6 H -3.452850 3.917830 0.631170 0
M  V30 7 C -4.316190 2.192540 -0.362560 0
M  V30 8 H -5.330760 2.578670 -0.370020 0
M  V30 9 C -4.035430 0.940720 -0.912070 0
M  V30 10 H -4.818580 0.334860 -1.356070 0
M  V30 11 C -2.724640 0.474370 -0.896120 0
M  V30 12 C -2.287580 -0.815880 -1.524240 0
M  V30 13 H -3.083460 -1.566160 -1.493850 0
M  V30 14 H -2.020480 -0.628220 -2.567380 0
M  V30 15 N -1.054250 -1.305950 -0.829570 0
M  V30 16 C -0.444160 -2.446520 -1.593470 0
M  V30 17 H 0.568810 -2.587550 -1.216060 0
M  V30 18 H -0.382270 -2.185370 -2.650190 0
M  V30 19 C -1.323860 -3.656380 -1.257650 0
M  V30 20 H -0.773390 -4.592190 -1.377100 0
M  V30 21 H -2.188610 -3.707860 -1.925130 0
M  V30 22 C -1.764650 -3.408920 0.210330 0
M  V30 23 H -1.224180 -4.059210 0.904560 0
M  V30 24 H -2.828060 -3.612660 0.352990 0
M  V30 25 C -1.428400 -1.920040 0.503140 0
M  V30 26 H -2.289900 -1.370250 0.890530 0
M  V30 27 C -0.258890 -1.756230 1.470830 0
M  V30 28 H 0.568890 -2.386550 1.136990 0
M  V30 29 C -0.655400 -2.035530 2.946930 0
M  V30 30 H -1.643430 -2.502930 2.989020 0
M  V30 31 H 0.040590 -2.730700 3.421310 0
M  V30 32 C -0.651150 -0.652040 3.651540 0
M  V30 33 H -1.535640 -0.495140 4.272920 0
M  V30 34 H 0.220060 -0.545000 4.303850 0
M  V30 35 C -0.597700 0.356630 2.497220 0
M  V30 36 H -0.154080 1.323100 2.744540 0
M  V30 37 H -1.592990 0.533980 2.089390 0
M  V30 38 N 0.216230 -0.318270 1.428940 0
M  V30 39 C 1.672950 -0.260820 1.765700 0
M  V30 40 H 1.899770 -0.866130 2.649240 0
M  V30 41 H 1.919520 0.778690 2.002050 0
M  V30 42 C 2.472650 -0.710770 0.575910 0
M  V30 43 C 3.751220 -1.252640 0.657340 0
M  V30 44 H 4.210490 -1.414060 1.627280 0
M  V30 45 C 4.424990 -1.573830 -0.523000 0
M  V30 46 H 5.425600 -1.993090 -0.485010 0
M  V30 47 C 3.794630 -1.350130 -1.748800 0
M  V30 48 H 4.284820 -1.583430 -2.687690 0
M  V30 49 C 2.510190 -0.817710 -1.758190 0
M  V30 50 H 1.959000 -0.620600 -2.669520 0
M  V30 51 N 1.867040 -0.514760 -0.614620 0
M  V30 52 O 0.021690 0.552700 -2.308310 0
M  V30 53 H 0.344290 1.428070 -2.588170 0
M  V30 54 N 0.963450 1.975610 -0.192000 0
M  V30 55 C 1.682270 2.912340 -0.037100 0
M  V30 56 S 2.630290 4.194780 0.173770 0
M  V30 END ATOM
M  V30 BEGIN BOND
M  V30 1 1 48 47
M  V30 2 1 50 49
M  V30 3 1 18 16
M  V30 4 1 53 52
M  V30 5 1 14 12
M  V30 6 1 52 1
M  V30 7 1 21 19
M  V30 8 2 49 47
M  V30 9 1 49 51
M  V30 10 1 47 45
M  V30 11 1 16 19
M  V30 12 1 16 17
M  V30 13 1 16 15
M  V30 14 1 12 13
M  V30 15 1 12 11
M  V30 16 1 12 15
M  V30 17 1 20 19
M  V30 18 1 10 9
M  V30 19 1 19 22
M  V30 20 1 9 11
M  V30 21 2 9 7
M  V30 22 2 11 2
M  V30 23 1 15 25
M  V30 24 2 51 42
M  V30 25 1 1 54
M  V30 26 1 45 46
M  V30 27 2 45 43
M  V30 28 1 8 7
M  V30 29 1 7 5
M  V30 30 1 2 3
M  V30 31 2 54 55
M  V30 32 2 55 56
M  V30 33 2 3 5
M  V30 34 1 3 4
M  V30 35 1 5 6
M  V30 36 1 22 24
M  V30 37 1 22 25
M  V30 38 1 22 23
M  V30 39 1 25 26
M  V30 40 1 25 27
M  V30 41 1 42 43
M  V30 42 1 42 39
M  V30 43 1 43 44
M  V30 44 1 28 27
M  V30 45 1 38 27
M  V30 46 1 38 39
M  V30 47 1 38 35
M  V30 48 1 27 29
M  V30 49 1 39 41
M  V30 50 1 39 40
M  V30 51 1 37 35
M  V30 52 1 35 36
M  V30 53 1 35 32
M  V30 54 1 29 30
M  V30 55 1 29 31
M  V30 56 1 29 32
M  V30 57 1 32 33
M  V30 58 1 32 34
M  V30 59 9 2 1
M  V30 60 9 15 1
M  V30 61 9 38 1
M  V30 62 9 51 1
M  V30 END BOND
M  V30 END CTAB
M  END
