
     RDKit          3D

  0  0  0  0  0  0  0  0  0  0999 V3000
M  V30 BEGIN CTAB
M  V30 COUNTS 54 60 0 0 0
M  V30 BEGIN ATOM
M  V30 1 Fe 0.003610 -0.887710 -0.271300 0 CHG=2 VAL=6
M  V30 2 N 1.952910 -0.959820 -0.051870 0
M  V30 3 C 2.591870 -1.824670 0.759010 0
M  V30 4 H 1.958400 -2.482230 1.341290 0
M  V30 5 C 3.980400 -1.851130 0.815630 0
M  V30 6 H 4.476490 -2.555610 1.474260 0
M  V30 7 C 4.707210 -0.965860 0.014970 0
M  V30 8 H 5.792490 -0.963130 0.044750 0
M  V30 9 C 4.027430 -0.086940 -0.833590 0
M  V30 10 H 4.566020 0.600450 -1.477780 0
M  V30 11 C 2.637980 -0.117660 -0.857360 0
M  V30 12 C 1.779910 0.678810 -1.798990 0
M  V30 13 H 2.244040 1.633730 -2.062750 0
M  V30 14 H 1.632750 0.099150 -2.715170 0
M  V30 15 N 0.428960 0.890650 -1.183320 0
M  V30 16 C -0.557620 1.383500 -2.206150 0
M  V30 17 H -1.555330 1.243740 -1.788330 0
M  V30 18 H -0.476180 0.782890 -3.112680 0
M  V30 19 C -0.231790 2.872260 -2.363030 0
M  V30 20 H -1.092360 3.429040 -2.740410 0
M  V30 21 H 0.582880 3.018360 -3.078060 0
M  V30 22 C 0.187020 3.318420 -0.937290 0
M  V30 23 H -0.617530 3.870280 -0.442040 0
M  V30 24 H 1.056380 3.978830 -0.957690 0
M  V30 25 C 0.487360 2.008160 -0.156970 0
M  V30 26 H 1.492020 2.003730 0.272760 0
M  V30 27 C -0.531250 1.722440 0.946060 0
M  V30 28 H -1.540260 1.826330 0.540260 0
M  V30 29 C -0.302850 2.589120 2.212820 0
M  V30 30 H 0.349080 3.435650 1.979360 0
M  V30 31 H -1.242890 3.008730 2.577330 0
M  V30 32 C 0.340530 1.637270 3.260250 0
M  V30 33 H 1.230310 2.066500 3.726040 0
M  V30 34 H -0.362120 1.408390 4.065860 0
M  V30 35 C 0.694070 0.370310 2.467440 0
M  V30 36 H 0.701490 -0.555400 3.044280 0
M  V30 37 H 1.660850 0.473630 1.975240 0
M  V30 38 N -0.359770 0.288580 1.395400 0
M  V30 39 C -1.636680 -0.257400 1.960680 0
M  V30 40 H -2.063610 0.434540 2.692890 0
M  V30 41 H -1.392360 -1.196280 2.463780 0
M  V30 42 C -2.589140 -0.535850 0.835710 0
M  V30 43 C -3.973460 -0.556400 0.964410 0
M  V30 44 H -4.432110 -0.314000 1.917520 0
M  V30 45 C -4.749600 -0.904500 -0.143440 0
M  V30 46 H -5.831810 -0.935830 -0.064020 0
M  V30 47 C -4.118180 -1.212880 -1.350390 0
M  V30 48 H -4.685580 -1.493820 -2.230920 0
M  V30 49 C -2.730570 -1.162110 -1.415520 0
M  V30 50 H -2.176840 -1.395900 -2.316740 0
M  V30 51 N -1.993930 -0.819140 -0.342250 0
M  V30 52 O 0.087060 -1.658480 -1.840340 0
M  V30 53 H 0.137810 -2.630280 -1.728330 0
M  V30 54 F -0.163910 -2.319360 0.733820 0
M  V30 END ATOM
M  V30 BEGIN BOND
M  V30 1 1 18 16
M  V30 2 1 21 19
M  V30 3 1 20 19
M  V30 4 1 14 12
M  V30 5 1 19 16
M  V30 6 1 19 22
M  V30 7 1 50 49
M  V30 8 1 48 47
M  V30 9 1 16 17
M  V30 10 1 16 15
M  V30 11 1 13 12
M  V30 12 1 52 53
M  V30 13 1 52 1
M  V30 14 1 12 15
M  V30 15 1 12 11
M  V30 16 1 10 9
M  V30 17 2 49 47
M  V30 18 1 49 51
M  V30 19 1 47 45
M  V30 20 1 15 25
M  V30 21 1 24 22
M  V30 22 1 22 23
M  V30 23 1 22 25
M  V30 24 1 11 9
M  V30 25 2 11 2
M  V30 26 2 9 7
M  V30 27 2 51 42
M  V30 28 1 1 54
M  V30 29 1 25 26
M  V30 30 1 25 27
M  V30 31 1 45 46
M  V30 32 2 45 43
M  V30 33 1 2 3
M  V30 34 1 7 8
M  V30 35 1 7 5
M  V30 36 1 28 27
M  V30 37 2 3 5
M  V30 38 1 3 4
M  V30 39 1 5 6
M  V30 40 1 42 43
M  V30 41 1 42 39
M  V30 42 1 27 38
M  V30 43 1 27 29
M  V30 44 1 43 44
M  V30 45 1 38 39
M  V30 46 1 38 35
M  V30 47 1 39 41
M  V30 48 1 39 40
M  V30 49 1 37 35
M  V30 50 1 30 29
M  V30 51 1 29 31
M  V30 52 1 29 32
M  V30 53 1 35 36
M  V30 54 1 35 32
M  V30 55 1 32 33
M  V30 56 1 32 34
M  V30 57 9 2 1
M  V30 58 9 15 1
M  V30 59 9 38 1
M  V30 60 9 51 1
M  V30 END BOND
M  V30 END CTAB
M  END
