
     RDKit          3D

  0  0  0  0  0  0  0  0  0  0999 V3000
M  V30 BEGIN CTAB
M  V30 COUNTS 57 62 0 0 0
M  V30 BEGIN ATOM
M  V30 1 Fe -0.061530 0.054650 -0.065520 0 CHG=2 VAL=7
M  V30 2 N 0.792810 -1.762360 -0.516710 0
M  V30 3 C 1.877510 -1.742660 -1.545980 0
M  V30 4 H 1.377660 -1.484550 -2.479600 0
M  V30 5 H 2.281240 -2.760670 -1.625500 0
M  V30 6 C 3.030940 -0.771100 -1.298170 0
M  V30 7 H 3.689450 -0.871210 -2.169250 0
M  V30 8 H 3.649020 -1.095930 -0.453630 0
M  V30 9 C 2.679590 0.713920 -1.196270 0
M  V30 10 H 3.608570 1.299590 -1.197880 0
M  V30 11 H 2.069460 1.001380 -2.050440 0
M  V30 12 N 1.904640 1.089940 0.038350 0
M  V30 13 C 1.577940 2.557440 0.001180 0
M  V30 14 H 1.619880 2.945820 1.021380 0
M  V30 15 H 2.341780 3.101410 -0.565580 0
M  V30 16 C 0.221860 2.837850 -0.601830 0
M  V30 17 H 0.221530 2.635240 -1.671540 0
M  V30 18 H -0.068040 3.880190 -0.426610 0
M  V30 19 N -0.829220 1.951700 -0.020250 0
M  V30 20 C -2.175070 2.257560 -0.601810 0
M  V30 21 H -2.020320 2.397470 -1.674830 0
M  V30 22 H -2.467870 3.228300 -0.185870 0
M  V30 23 C -3.264340 1.220860 -0.365930 0
M  V30 24 H -3.502830 1.107590 0.696480 0
M  V30 25 H -4.174660 1.632220 -0.817010 0
M  V30 26 C -2.981630 -0.117700 -1.037720 0
M  V30 27 H -2.688920 0.056430 -2.075710 0
M  V30 28 H -3.897300 -0.721210 -1.067860 0
M  V30 29 N -1.903350 -0.936110 -0.390030 0
M  V30 30 C -1.525590 -2.012360 -1.366740 0
M  V30 31 H -2.359010 -2.714800 -1.495770 0
M  V30 32 H -1.315920 -1.524580 -2.315400 0
M  V30 33 C -0.280540 -2.739860 -0.906100 0
M  V30 34 H 0.082730 -3.383370 -1.712050 0
M  V30 35 H -0.491960 -3.392470 -0.056370 0
M  V30 36 C 2.784250 0.922510 1.234980 0
M  V30 37 H 3.619740 1.631250 1.190380 0
M  V30 38 H 3.207010 -0.076700 1.283940 0
M  V30 39 H 2.214990 1.106330 2.147840 0
M  V30 40 C -0.731380 1.453240 1.244660 0
M  V30 41 H 0.053370 1.811870 1.897380 0
M  V30 42 H -1.305910 0.242800 3.493420 0
M  V30 43 H -1.667760 1.195470 1.718470 0
M  V30 44 C -2.468290 -1.552580 0.843350 0
M  V30 45 H -2.731070 -0.779280 1.564400 0
M  V30 46 H -1.737370 -2.211660 1.308820 0
M  V30 47 H -3.367780 -2.134540 0.608690 0
M  V30 48 C 1.202730 -1.952380 0.891070 0
M  V30 49 H 2.277160 -1.788870 1.025560 0
M  V30 50 H 1.016760 -2.968410 1.272260 0
M  V30 51 C 0.415640 -0.885270 1.566380 0 RAD=2 VAL=3
M  V30 52 C 0.436160 -0.917720 2.998090 0
M  V30 53 H 1.201800 -1.548430 3.457780 0
M  V30 54 C -0.460520 -0.340890 3.836610 0
M  V30 55 H -0.394070 -0.497490 4.910070 0
M  V30 56 O 0.028460 0.320000 -1.933720 0
M  V30 57 H -0.759070 0.712570 -2.336850 0
M  V30 END ATOM
M  V30 BEGIN BOND
M  V30 1 1 4 3
M  V30 2 1 57 56
M  V30 3 1 32 30
M  V30 4 1 7 6
M  V30 5 1 27 26
M  V30 6 1 11 9
M  V30 7 1 56 1
M  V30 8 1 34 33
M  V30 9 1 21 20
M  V30 10 1 17 16
M  V30 11 1 5 3
M  V30 12 1 3 6
M  V30 13 1 3 2
M  V30 14 1 31 30
M  V30 15 1 30 33
M  V30 16 1 30 29
M  V30 17 1 6 9
M  V30 18 1 6 8
M  V30 19 1 10 9
M  V30 20 1 9 12
M  V30 21 1 28 26
M  V30 22 1 26 29
M  V30 23 1 26 23
M  V30 24 1 33 2
M  V30 25 1 33 35
M  V30 26 1 25 23
M  V30 27 1 16 18
M  V30 28 1 16 19
M  V30 29 1 16 13
M  V30 30 1 20 23
M  V30 31 1 20 22
M  V30 32 1 20 19
M  V30 33 1 15 13
M  V30 34 1 2 48
M  V30 35 1 29 44
M  V30 36 1 23 24
M  V30 37 1 1 40
M  V30 38 1 1 51
M  V30 39 1 19 40
M  V30 40 1 13 12
M  V30 41 1 13 14
M  V30 42 1 12 36
M  V30 43 1 47 44
M  V30 44 1 44 46
M  V30 45 1 44 45
M  V30 46 1 48 49
M  V30 47 1 48 50
M  V30 48 1 48 51
M  V30 49 1 37 36
M  V30 50 1 36 38
M  V30 51 1 36 39
M  V30 52 1 40 43
M  V30 53 1 40 41
M  V30 54 1 51 52
M  V30 55 1 52 53
M  V30 56 2 52 54
M  V30 57 1 42 54
M  V30 58 1 54 55
M  V30 59 9 2 1
M  V30 60 9 12 1
M  V30 61 9 19 1
M  V30 62 9 29 1
M  V30 END BOND
M  V30 END CTAB
M  END
