
     RDKit          3D

  0  0  0  0  0  0  0  0  0  0999 V3000
M  V30 BEGIN CTAB
M  V30 COUNTS 62 66 0 0 0
M  V30 BEGIN ATOM
M  V30 1 Fe 0.548190 0.090580 0.120070 0 CHG=2 VAL=6
M  V30 2 N -1.054890 0.360170 1.635430 0
M  V30 3 C -0.825080 1.682340 2.324920 0
M  V30 4 H 0.125760 1.589960 2.848010 0
M  V30 5 H -1.612670 1.818990 3.078350 0
M  V30 6 C -0.811990 2.931810 1.419430 0
M  V30 7 H -1.811400 3.118600 1.011730 0
M  V30 8 H -0.644710 3.769960 2.107020 0
M  V30 9 C 0.247740 3.102280 0.310600 0
M  V30 10 H 0.115460 4.104750 -0.119150 0
M  V30 11 H 1.249040 3.050750 0.733810 0
M  V30 12 N 0.182900 2.103670 -0.816070 0
M  V30 13 C 1.316510 2.282400 -1.804500 0
M  V30 14 H 0.879340 2.275950 -2.804210 0
M  V30 15 H 1.771660 3.268870 -1.668370 0
M  V30 16 C 2.420320 1.221320 -1.721280 0
M  V30 17 H 3.018650 1.263530 -2.641040 0
M  V30 18 H 3.080790 1.427110 -0.881680 0
M  V30 19 N 1.885420 -0.168920 -1.533570 0
M  V30 20 C 3.018110 -1.098710 -1.189020 0
M  V30 21 H 3.607920 -1.252860 -2.101950 0
M  V30 22 H 3.649860 -0.577270 -0.468090 0
M  V30 23 C 2.614140 -2.460590 -0.608830 0
M  V30 24 H 1.932970 -2.996410 -1.277570 0
M  V30 25 H 3.530600 -3.061920 -0.597770 0
M  V30 26 C 2.093020 -2.449730 0.835490 0
M  V30 27 H 2.126730 -3.468510 1.242930 0
M  V30 28 H 2.740430 -1.824500 1.451550 0
M  V30 29 N 0.688400 -1.936710 0.987180 0
M  V30 30 C 0.376290 -1.641900 2.421010 0
M  V30 31 H 0.254000 -2.579200 2.980810 0
M  V30 32 H 1.225880 -1.109500 2.842400 0
M  V30 33 C -0.908790 -0.815350 2.584620 0
M  V30 34 H -1.774830 -1.463110 2.438870 0
M  V30 35 H -0.959670 -0.453100 3.616430 0
M  V30 36 C -1.085470 2.290210 -1.572410 0
M  V30 37 H -1.097780 3.276240 -2.052850 0
M  V30 38 H -1.945300 2.230540 -0.910430 0
M  V30 39 H -1.181800 1.514600 -2.331050 0
M  V30 40 C 1.171600 -0.641380 -2.748350 0
M  V30 41 H 1.854040 -0.666050 -3.606360 0
M  V30 42 H 0.332610 0.016530 -2.967480 0
M  V30 43 H 0.773530 -1.640160 -2.572530 0
M  V30 44 C -0.263020 -2.941030 0.443810 0
M  V30 45 H -0.078810 -3.919660 0.903190 0
M  V30 46 H -0.150340 -3.018530 -0.636380 0
M  V30 47 H -1.289960 -2.646940 0.651180 0
M  V30 48 C -2.384980 0.309250 0.981090 0
M  V30 49 H -2.745110 1.323030 0.795130 0
M  V30 50 H -3.123380 -0.158660 1.638530 0
M  V30 51 C -2.286250 -0.409250 -0.364270 0
M  V30 52 O -1.131610 -0.556630 -0.871920 0
M  V30 53 N -3.378880 -0.829030 -0.983300 0
M  V30 54 C -3.291640 -1.540810 -2.270420 0
M  V30 55 H -3.692810 -0.906410 -3.066760 0
M  V30 56 H -3.889240 -2.454310 -2.207710 0
M  V30 57 H -2.255200 -1.791170 -2.485170 0
M  V30 58 C -4.744060 -0.642240 -0.459260 0
M  V30 59 H -5.076100 -1.542980 0.067130 0
M  V30 60 H -5.412180 -0.463890 -1.304520 0
M  V30 61 H -4.807490 0.219690 0.204460 0
M  V30 62 Cl 2.228230 0.826350 1.495270 0
M  V30 END ATOM
M  V30 BEGIN BOND
M  V30 1 1 41 40
M  V30 2 1 55 54
M  V30 3 1 42 40
M  V30 4 1 14 13
M  V30 5 1 40 43
M  V30 6 1 40 19
M  V30 7 1 17 16
M  V30 8 1 57 54
M  V30 9 1 39 36
M  V30 10 1 54 56
M  V30 11 1 54 53
M  V30 12 1 21 20
M  V30 13 1 37 36
M  V30 14 1 13 16
M  V30 15 1 13 15
M  V30 16 1 13 12
M  V30 17 1 16 19
M  V30 18 1 16 18
M  V30 19 1 36 38
M  V30 20 1 36 12
M  V30 21 1 19 20
M  V30 22 1 60 58
M  V30 23 1 24 23
M  V30 24 1 20 23
M  V30 25 1 20 22
M  V30 26 1 53 58
M  V30 27 1 53 51
M  V30 28 2 52 51
M  V30 29 1 12 9
M  V30 30 1 46 44
M  V30 31 1 23 25
M  V30 32 1 23 26
M  V30 33 1 58 59
M  V30 34 1 58 61
M  V30 35 1 51 48
M  V30 36 1 10 9
M  V30 37 1 1 62
M  V30 38 1 9 11
M  V30 39 1 9 6
M  V30 40 1 44 47
M  V30 41 1 44 45
M  V30 42 1 44 29
M  V30 43 1 49 48
M  V30 44 1 26 29
M  V30 45 1 26 27
M  V30 46 1 26 28
M  V30 47 1 48 2
M  V30 48 1 48 50
M  V30 49 1 29 30
M  V30 50 1 7 6
M  V30 51 1 6 8
M  V30 52 1 6 3
M  V30 53 1 2 3
M  V30 54 1 2 33
M  V30 55 1 3 4
M  V30 56 1 3 5
M  V30 57 1 30 33
M  V30 58 1 30 32
M  V30 59 1 30 31
M  V30 60 1 34 33
M  V30 61 1 33 35
M  V30 62 9 2 1
M  V30 63 9 12 1
M  V30 64 9 19 1
M  V30 65 9 29 1
M  V30 66 9 52 1
M  V30 END BOND
M  V30 END CTAB
M  END
