
     RDKit          3D

  0  0  0  0  0  0  0  0  0  0999 V3000
M  V30 BEGIN CTAB
M  V30 COUNTS 63 67 0 0 0
M  V30 BEGIN ATOM
M  V30 1 Fe 0.609540 0.122480 0.234580 0 CHG=2 VAL=6
M  V30 2 O 1.826860 0.644030 1.480600 0
M  V30 3 N -1.128110 0.028480 1.634710 0
M  V30 4 C -0.997590 1.213190 2.546560 0
M  V30 5 H -0.062370 1.068320 3.088420 0
M  V30 6 H -1.811690 1.185710 3.284090 0
M  V30 7 C -1.005380 2.602620 1.877090 0
M  V30 8 H -1.992490 2.813310 1.452500 0
M  V30 9 H -0.915180 3.315290 2.706100 0
M  V30 10 C 0.096520 2.997530 0.872140 0
M  V30 11 H -0.036210 4.063400 0.638700 0
M  V30 12 H 1.080480 2.871800 1.323440 0
M  V30 13 N 0.109560 2.228290 -0.417120 0
M  V30 14 C 1.271470 2.628110 -1.293100 0
M  V30 15 H 0.910730 2.652090 -2.322720 0
M  V30 16 H 1.589590 3.648460 -1.049690 0
M  V30 17 C 2.476550 1.695410 -1.191720 0
M  V30 18 H 3.194600 1.952060 -1.982170 0
M  V30 19 H 2.966250 1.816730 -0.226460 0
M  V30 20 N 2.094980 0.249000 -1.299970 0
M  V30 21 C 3.291660 -0.594960 -0.967880 0
M  V30 22 H 3.984040 -0.545540 -1.818650 0
M  V30 23 H 3.776810 -0.123840 -0.110970 0
M  V30 24 C 3.002080 -2.060960 -0.624500 0
M  V30 25 H 2.446890 -2.561960 -1.423820 0
M  V30 26 H 3.976410 -2.562440 -0.597980 0
M  V30 27 C 2.355890 -2.296960 0.747590 0
M  V30 28 H 2.493970 -3.344590 1.046340 0
M  V30 29 H 2.851770 -1.665330 1.486720 0
M  V30 30 N 0.891100 -1.980520 0.812630 0
M  V30 31 C 0.440010 -1.901430 2.234720 0
M  V30 32 H 0.421750 -2.901820 2.689040 0
M  V30 33 H 1.174330 -1.302580 2.771700 0
M  V30 34 C -0.953370 -1.279020 2.370540 0
M  V30 35 H -1.699720 -1.976800 1.987210 0
M  V30 36 H -1.177830 -1.135910 3.433680 0
M  V30 37 C -1.129770 2.492540 -1.191880 0
M  V30 38 H -1.170070 3.543010 -1.506970 0
M  V30 39 H -2.015390 2.288870 -0.595170 0
M  V30 40 H -1.153680 1.848420 -2.070970 0
M  V30 41 C 1.562240 -0.086930 -2.643510 0
M  V30 42 H 2.297740 0.148230 -3.422770 0
M  V30 43 H 0.640720 0.463620 -2.828280 0
M  V30 44 H 1.323570 -1.149870 -2.682770 0
M  V30 45 C 0.120290 -3.001560 0.061340 0
M  V30 46 H 0.353700 -4.007260 0.432920 0
M  V30 47 H 0.361870 -2.941340 -0.999110 0
M  V30 48 H -0.948750 -2.826520 0.163430 0
M  V30 49 C -2.404360 0.016270 0.887740 0
M  V30 50 H -2.815260 1.026160 0.834030 0
M  V30 51 H -3.154590 -0.590510 1.404210 0
M  V30 52 C -2.161180 -0.477940 -0.542200 0
M  V30 53 O -0.968840 -0.493210 -0.970010 0
M  V30 54 N -3.183340 -0.848290 -1.301600 0
M  V30 55 C -2.961770 -1.351440 -2.667880 0
M  V30 56 H -3.337910 -0.622670 -3.392620 0
M  V30 57 H -3.509070 -2.290130 -2.790550 0
M  V30 58 H -1.899530 -1.519260 -2.831220 0
M  V30 59 C -4.589800 -0.808280 -0.865600 0
M  V30 60 H -4.906680 -1.792370 -0.504820 0
M  V30 61 H -5.206180 -0.535730 -1.725040 0
M  V30 62 H -4.751270 -0.060520 -0.089380 0
M  V30 63 H 2.036050 0.904460 2.388600 0
M  V30 END ATOM
M  V30 BEGIN BOND
M  V30 1 1 42 41
M  V30 2 1 56 55
M  V30 3 1 58 55
M  V30 4 1 43 41
M  V30 5 1 57 55
M  V30 6 1 44 41
M  V30 7 1 55 54
M  V30 8 1 41 20
M  V30 9 1 15 14
M  V30 10 1 40 37
M  V30 11 1 18 17
M  V30 12 1 22 21
M  V30 13 1 61 59
M  V30 14 1 38 37
M  V30 15 1 25 24
M  V30 16 1 54 59
M  V30 17 1 54 52
M  V30 18 1 20 17
M  V30 19 1 20 21
M  V30 20 1 14 17
M  V30 21 1 14 16
M  V30 22 1 14 13
M  V30 23 1 37 39
M  V30 24 1 37 13
M  V30 25 1 17 19
M  V30 26 1 47 45
M  V30 27 2 53 52
M  V30 28 1 21 24
M  V30 29 1 21 23
M  V30 30 1 59 60
M  V30 31 1 59 62
M  V30 32 1 24 26
M  V30 33 1 24 27
M  V30 34 1 52 49
M  V30 35 1 13 10
M  V30 36 1 45 48
M  V30 37 1 45 46
M  V30 38 1 45 30
M  V30 39 1 1 2
M  V30 40 1 11 10
M  V30 41 1 27 30
M  V30 42 1 27 28
M  V30 43 1 27 29
M  V30 44 1 30 31
M  V30 45 1 50 49
M  V30 46 1 10 12
M  V30 47 1 10 7
M  V30 48 1 49 51
M  V30 49 1 49 3
M  V30 50 1 8 7
M  V30 51 1 2 63
M  V30 52 1 3 34
M  V30 53 1 3 4
M  V30 54 1 7 4
M  V30 55 1 7 9
M  V30 56 1 35 34
M  V30 57 1 31 34
M  V30 58 1 31 32
M  V30 59 1 31 33
M  V30 60 1 34 36
M  V30 61 1 4 5
M  V30 62 1 4 6
M  V30 63 9 3 1
M  V30 64 9 13 1
M  V30 65 9 20 1
M  V30 66 9 30 1
M  V30 67 9 53 1
M  V30 END BOND
M  V30 END CTAB
M  END
