
     RDKit          3D

  0  0  0  0  0  0  0  0  0  0999 V3000
M  V30 BEGIN CTAB
M  V30 COUNTS 58 59 0 0 0
M  V30 BEGIN ATOM
M  V30 1 Fe 0.055090 0.136250 0.018310 0 CHG=-1 RAD=2 VAL=3
M  V30 2 N -0.817400 -0.970400 -1.467500 0
M  V30 3 C -2.005800 -1.826400 -1.138500 0
M  V30 4 H -1.625800 -2.718200 -0.643700 0
M  V30 5 H -2.448000 -2.151600 -2.090000 0
M  V30 6 C -3.102500 -1.183400 -0.285100 0
M  V30 7 H -3.800900 -1.996500 -0.053300 0
M  V30 8 H -3.696600 -0.478600 -0.876000 0
M  V30 9 C -2.705200 -0.564300 1.058400 0
M  V30 10 H -3.624100 -0.312200 1.604400 0
M  V30 11 H -2.136900 -1.272500 1.659100 0
M  V30 12 N -1.877300 0.689600 0.950600 0
M  V30 13 C -1.549900 1.216000 2.327300 0
M  V30 14 H -1.616100 2.305800 2.297300 0
M  V30 15 H -2.305500 0.883600 3.047200 0
M  V30 16 C -0.183300 0.798300 2.825500 0
M  V30 17 H -0.158600 -0.259200 3.084600 0
M  V30 18 H 0.103600 1.395100 3.698800 0
M  V30 19 N 0.867100 0.973800 1.782100 0 CHG=1 VAL=4
M  V30 20 C 2.197700 0.467100 2.247200 0
M  V30 21 H 1.996300 -0.496800 2.716500 0
M  V30 22 H 2.522300 1.172400 3.020800 0
M  V30 23 C 3.267100 0.306000 1.175800 0
M  V30 24 H 3.512000 1.250000 0.677000 0
M  V30 25 H 4.182000 0.028500 1.712000 0
M  V30 26 C 2.967100 -0.819200 0.191700 0
M  V30 27 H 2.653300 -1.696900 0.756600 0
M  V30 28 H 3.877200 -1.084400 -0.360600 0
M  V30 29 N 1.887600 -0.525700 -0.814100 0
M  V30 30 C 1.547400 -1.830700 -1.472800 0
M  V30 31 H 2.347700 -2.116900 -2.167000 0
M  V30 32 H 1.507200 -2.598500 -0.706400 0
M  V30 33 C 0.222900 -1.767500 -2.218400 0
M  V30 34 H -0.142600 -2.785500 -2.372700 0
M  V30 35 H 0.349900 -1.326900 -3.209700 0
M  V30 36 C -2.716900 1.760100 0.326300 0
M  V30 37 H -3.573400 1.989700 0.971200 0
M  V30 38 H -3.105200 1.452800 -0.639900 0
M  V30 39 H -2.128100 2.667800 0.189100 0
M  V30 40 C 0.779400 1.914000 0.823400 0
M  V30 41 H 1.708500 2.216100 0.364300 0
M  V30 42 H -0.012200 2.649200 0.867600 0
M  V30 43 H 1.335800 3.541800 -1.149900 0
M  V30 44 C 2.436900 0.399400 -1.846400 0
M  V30 45 H 2.642100 1.377500 -1.413800 0
M  V30 46 H 1.719100 0.527900 -2.656600 0
M  V30 47 H 3.367800 -0.000300 -2.265500 0
M  V30 48 C -1.154200 0.274500 -2.202300 0
M  V30 49 H -2.229200 0.485800 -2.163100 0
M  V30 50 H -0.911900 0.222700 -3.274300 0
M  V30 51 C -0.385400 1.297000 -1.448200 0 CHG=1 VAL=3
M  V30 52 C -0.403000 2.611400 -2.019300 0
M  V30 53 H -1.169100 2.789100 -2.779200 0
M  V30 54 C 0.483900 3.617100 -1.814400 0 CHG=1 VAL=3
M  V30 55 H 0.402300 4.544300 -2.375400 0
M  V30 56 N 0.130900 -1.443600 1.227200 0
M  V30 57 N 0.013000 -2.631900 1.010800 0 CHG=1 VAL=4
M  V30 58 N -0.082800 -3.772300 0.863900 0 CHG=-1 VAL=2
M  V30 END ATOM
M  V30 BEGIN BOND
M  V30 1 1 50 48
M  V30 2 1 35 33
M  V30 3 1 53 52
M  V30 4 1 46 44
M  V30 5 1 55 54
M  V30 6 1 34 33
M  V30 7 1 47 44
M  V30 8 1 33 30
M  V30 9 1 33 2
M  V30 10 1 48 49
M  V30 11 1 48 2
M  V30 12 1 48 51
M  V30 13 1 31 30
M  V30 14 1 5 3
M  V30 15 1 52 54
M  V30 16 2 52 51 CFG=2
M  V30 17 1 44 45
M  V30 18 1 44 29
M  V30 19 1 54 43
M  V30 20 1 30 29
M  V30 21 1 30 32
M  V30 22 1 2 3
M  V30 23 1 3 4
M  V30 24 1 3 6
M  V30 25 1 8 6
M  V30 26 1 29 26
M  V30 27 1 38 36
M  V30 28 1 28 26
M  V30 29 1 6 7
M  V30 30 1 6 9
M  V30 31 1 39 36
M  V30 32 1 26 27
M  V30 33 1 26 23
M  V30 34 1 36 12
M  V30 35 1 36 37
M  V30 36 1 41 40
M  V30 37 1 24 23
M  V30 38 1 40 42
M  V30 39 2 40 19
M  V30 40 2 58 57
M  V30 41 1 12 9
M  V30 42 1 12 13
M  V30 43 2 57 56
M  V30 44 1 9 10
M  V30 45 1 9 11
M  V30 46 1 23 25
M  V30 47 1 23 20
M  V30 48 1 19 20
M  V30 49 1 19 16
M  V30 50 1 20 21
M  V30 51 1 20 22
M  V30 52 1 14 13
M  V30 53 1 13 16
M  V30 54 1 13 15
M  V30 55 1 16 17
M  V30 56 1 16 18
M  V30 57 9 12 1
M  V30 58 9 29 1
M  V30 59 1 56 1
M  V30 END BOND
M  V30 END CTAB
M  END
