
     RDKit          3D

  0  0  0  0  0  0  0  0  0  0999 V3000
M  V30 BEGIN CTAB
M  V30 COUNTS 62 65 0 0 0
M  V30 BEGIN ATOM
M  V30 1 Fe -0.369420 0.007710 0.025750 0 VAL=6
M  V30 2 O 1.530950 0.025790 -0.700090 0
M  V30 3 C 2.741050 -0.015990 -0.247430 0
M  V30 4 O 3.075890 0.033300 0.945910 0 RAD=2 VAL=1
M  V30 5 C 3.809770 -0.130400 -1.342690 0
M  V30 6 H 3.631040 -1.075040 -1.876380 0
M  V30 7 H 3.613970 0.661460 -2.078070 0
M  V30 8 C 5.242920 -0.063000 -0.819770 0
M  V30 9 H 5.968100 -0.161370 -1.636310 0
M  V30 10 H 5.424730 -0.858530 -0.090990 0
M  V30 11 H 5.423110 0.887490 -0.307380 0
M  V30 12 N -0.017120 1.769610 1.395310 0
M  V30 13 N -1.180970 1.233620 -1.706560 0
M  V30 14 N -0.716830 -1.761530 -1.365330 0
M  V30 15 N -0.372880 -1.224050 1.927330 0
M  V30 16 C -1.244980 2.595570 1.291450 0
M  V30 17 C -1.506830 3.210310 -0.099700 0
M  V30 18 C -2.088260 2.285490 -1.183120 0
M  V30 19 C -1.969790 0.185190 -2.396610 0
M  V30 20 C -1.188020 -1.115550 -2.616550 0
M  V30 21 C -1.780770 -2.578410 -0.731990 0
M  V30 22 C -1.429960 -3.176980 0.645450 0
M  V30 23 C -1.463280 -2.229220 1.857020 0
M  V30 24 C -0.735800 -0.150910 2.887230 0
M  V30 25 C 0.113450 1.116100 2.724560 0
M  V30 26 C -0.135460 1.791730 -2.573270 0
M  V30 27 C 0.481300 -2.565510 -1.655440 0
M  V30 28 C 0.912820 -1.849790 2.276850 0
M  V30 29 C 1.186310 2.583240 1.139060 0
M  V30 30 H -2.090850 1.956560 1.545670 0
M  V30 31 H -1.183040 3.416910 2.028510 0
M  V30 32 H -0.621610 3.740510 -0.465250 0
M  V30 33 H -2.263360 3.991820 0.053190 0
M  V30 34 H -2.447640 2.908580 -2.021800 0
M  V30 35 H -2.938360 1.763550 -0.746790 0
M  V30 36 H -2.832200 -0.018680 -1.763430 0
M  V30 37 H -2.330560 0.544130 -3.377010 0
M  V30 38 H -0.303480 -0.908280 -3.223830 0
M  V30 39 H -1.817770 -1.809190 -3.199650 0
M  V30 40 H -2.648690 -1.930150 -0.608070 0
M  V30 41 H -2.048180 -3.406010 -1.414490 0
M  V30 42 H -2.197190 -3.937490 0.844010 0
M  V30 43 H -0.486720 -3.731210 0.602890 0
M  V30 44 H -1.455230 -2.838410 2.778410 0
M  V30 45 H -2.396380 -1.670220 1.813420 0
M  V30 46 H -0.633800 -0.506800 3.927330 0
M  V30 47 H -1.783300 0.087650 2.705990 0
M  V30 48 H 1.168210 0.860580 2.842550 0
M  V30 49 H -0.148550 1.821420 3.531930 0
M  V30 50 H -0.555240 2.195530 -3.510990 0
M  V30 51 H 0.384400 2.593670 -2.046680 0
M  V30 52 H 0.611120 1.027260 -2.788600 0
M  V30 53 H 0.254460 -3.401610 -2.338970 0
M  V30 54 H 1.239420 -1.915630 -2.090470 0
M  V30 55 H 0.897440 -2.965460 -0.730660 0
M  V30 56 H 0.888250 -2.272620 3.296310 0
M  V30 57 H 1.126110 -2.657240 1.573030 0
M  V30 58 H 1.722810 -1.126850 2.178070 0
M  V30 59 H 2.069670 1.965630 1.291410 0
M  V30 60 H 1.195380 2.922940 0.103010 0
M  V30 61 H 1.221110 3.462740 1.804620 0
M  V30 62 F -2.284360 0.026020 0.452660 0
M  V30 END ATOM
M  V30 BEGIN BOND
M  V30 1 1 50 26
M  V30 2 1 37 19
M  V30 3 1 38 20
M  V30 4 1 39 20
M  V30 5 1 52 26
M  V30 6 1 20 19
M  V30 7 1 20 14
M  V30 8 1 26 51
M  V30 9 1 26 13
M  V30 10 1 19 36
M  V30 11 1 19 13
M  V30 12 1 53 27
M  V30 13 1 54 27
M  V30 14 1 7 5
M  V30 15 1 34 18
M  V30 16 1 6 5
M  V30 17 1 13 18
M  V30 18 1 27 14
M  V30 19 1 27 55
M  V30 20 1 9 8
M  V30 21 1 41 21
M  V30 22 1 14 21
M  V30 23 1 5 8
M  V30 24 1 5 3
M  V30 25 1 18 35
M  V30 26 1 18 17
M  V30 27 1 8 11
M  V30 28 1 8 10
M  V30 29 1 21 40
M  V30 30 1 21 22
M  V30 31 2 2 3
M  V30 32 1 32 17
M  V30 33 1 3 4
M  V30 34 1 17 33
M  V30 35 1 17 16
M  V30 36 1 1 62
M  V30 37 1 60 29
M  V30 38 1 43 22
M  V30 39 1 22 42
M  V30 40 1 22 23
M  V30 41 1 29 59
M  V30 42 1 29 12
M  V30 43 1 29 61
M  V30 44 1 16 12
M  V30 45 1 16 30
M  V30 46 1 16 31
M  V30 47 1 12 25
M  V30 48 1 57 28
M  V30 49 1 45 23
M  V30 50 1 23 15
M  V30 51 1 23 44
M  V30 52 1 15 28
M  V30 53 1 15 24
M  V30 54 1 58 28
M  V30 55 1 28 56
M  V30 56 1 47 24
M  V30 57 1 25 48
M  V30 58 1 25 24
M  V30 59 1 25 49
M  V30 60 1 24 46
M  V30 61 9 2 1
M  V30 62 9 12 1
M  V30 63 9 13 1
M  V30 64 9 14 1
M  V30 65 9 15 1
M  V30 END BOND
M  V30 END CTAB
M  END
