
     RDKit          3D

  0  0  0  0  0  0  0  0  0  0999 V3000
M  V30 BEGIN CTAB
M  V30 COUNTS 58 62 0 0 0
M  V30 BEGIN ATOM
M  V30 1 Fe -0.238640 0.035700 -0.144490 0 VAL=6
M  V30 2 O -0.998380 0.163170 -1.991600 0
M  V30 3 N 1.595190 -1.207310 -0.745810 0
M  V30 4 C 2.004950 -0.601590 -2.037800 0
M  V30 5 C 2.411040 0.892920 -2.027980 0
M  V30 6 C 1.378990 2.004050 -1.721730 0
M  V30 7 N 0.867470 2.053460 -0.333150 0
M  V30 8 C -0.212240 3.064860 -0.166070 0
M  V30 9 C -1.630290 2.543810 -0.431350 0
M  V30 10 N -1.969700 1.346680 0.373630 0
M  V30 11 C -3.229840 0.738370 -0.116870 0
M  V30 12 C -3.455700 -0.732280 0.283520 0
M  V30 13 C -2.673460 -1.784140 -0.529100 0
M  V30 14 N -1.265010 -1.980020 -0.107890 0
M  V30 15 C -0.478900 -2.643730 -1.171210 0
M  V30 16 C 1.040630 -2.578060 -0.940090 0
M  V30 17 C 1.941950 2.356010 0.629150 0
M  V30 18 C -2.037100 1.644880 1.812260 0
M  V30 19 C -1.194990 -2.703970 1.166270 0
M  V30 20 C 2.743290 -1.260340 0.195740 0
M  V30 21 C 2.383960 -1.471240 1.674720 0
M  V30 22 C 1.553500 -0.319130 2.278090 0
M  V30 23 O 0.374620 -0.157920 1.761110 0
M  V30 24 O 2.042370 0.371870 3.171160 0 RAD=2 VAL=1
M  V30 25 H 1.168010 -0.739490 -2.722820 0
M  V30 26 H 2.860760 -1.167940 -2.449970 0
M  V30 27 H 3.298570 1.032900 -1.403390 0
M  V30 28 H 2.758600 1.095000 -3.050530 0
M  V30 29 H 1.859200 2.969050 -1.970540 0
M  V30 30 H 0.510690 1.880000 -2.368890 0
M  V30 31 H -0.149170 3.431630 0.861080 0
M  V30 32 H -0.032680 3.934900 -0.818910 0
M  V30 33 H -2.340490 3.367090 -0.233800 0
M  V30 34 H -1.713090 2.236840 -1.473870 0
M  V30 35 H -4.085330 1.342050 0.235000 0
M  V30 36 H -3.197690 0.790660 -1.206210 0
M  V30 37 H -3.301160 -0.871740 1.358940 0
M  V30 38 H -4.521090 -0.936760 0.112880 0
M  V30 39 H -3.206470 -2.750470 -0.476460 0
M  V30 40 H -2.644030 -1.456030 -1.568780 0
M  V30 41 H -0.760460 -3.707730 -1.273900 0
M  V30 42 H -0.726310 -2.122530 -2.095870 0
M  V30 43 H 1.293700 -3.163380 -0.054880 0
M  V30 44 H 1.540030 -3.074050 -1.788260 0
M  V30 45 H 2.363480 3.361150 0.456190 0
M  V30 46 H 2.746250 1.627190 0.548810 0
M  V30 47 H 1.559230 2.276980 1.646560 0
M  V30 48 H -2.762450 2.449890 2.021370 0
M  V30 49 H -1.049180 1.911580 2.185650 0
M  V30 50 H -2.330030 0.746240 2.356170 0
M  V30 51 H -1.614820 -3.721010 1.075500 0
M  V30 52 H -1.741940 -2.154200 1.932540 0
M  V30 53 H -0.164930 -2.761320 1.509900 0
M  V30 54 H 3.284430 -0.316810 0.116660 0
M  V30 55 H 3.444800 -2.047960 -0.132620 0
M  V30 56 H 1.846360 -2.417230 1.808320 0
M  V30 57 H 3.320280 -1.550040 2.235120 0
M  V30 58 H -0.527680 0.168330 -2.832270 0
M  V30 END ATOM
M  V30 BEGIN BOND
M  V30 1 1 28 5
M  V30 2 1 58 2
M  V30 3 1 25 4
M  V30 4 1 26 4
M  V30 5 1 30 6
M  V30 6 1 42 15
M  V30 7 1 4 5
M  V30 8 1 4 3
M  V30 9 1 5 6
M  V30 10 1 5 27
M  V30 11 1 2 1
M  V30 12 1 29 6
M  V30 13 1 44 16
M  V30 14 1 6 7
M  V30 15 1 40 13
M  V30 16 1 34 9
M  V30 17 1 41 15
M  V30 18 1 36 11
M  V30 19 1 15 16
M  V30 20 1 15 14
M  V30 21 1 16 3
M  V30 22 1 16 43
M  V30 23 1 32 8
M  V30 24 1 3 20
M  V30 25 1 13 39
M  V30 26 1 13 14
M  V30 27 1 13 12
M  V30 28 1 9 33
M  V30 29 1 9 8
M  V30 30 1 9 10
M  V30 31 1 7 8
M  V30 32 1 7 17
M  V30 33 1 8 31
M  V30 34 1 55 20
M  V30 35 1 11 35
M  V30 36 1 11 12
M  V30 37 1 11 10
M  V30 38 1 14 19
M  V30 39 1 38 12
M  V30 40 1 54 20
M  V30 41 1 20 21
M  V30 42 1 12 37
M  V30 43 1 10 18
M  V30 44 1 45 17
M  V30 45 1 46 17
M  V30 46 1 17 47
M  V30 47 1 51 19
M  V30 48 1 19 53
M  V30 49 1 19 52
M  V30 50 1 21 56
M  V30 51 1 21 57
M  V30 52 1 21 22
M  V30 53 2 23 22
M  V30 54 1 18 48
M  V30 55 1 18 49
M  V30 56 1 18 50
M  V30 57 1 22 24
M  V30 58 9 3 1
M  V30 59 9 7 1
M  V30 60 9 10 1
M  V30 61 9 14 1
M  V30 62 9 23 1
M  V30 END BOND
M  V30 END CTAB
M  END
