
     RDKit          3D

  0  0  0  0  0  0  0  0  0  0999 V3000
M  V30 BEGIN CTAB
M  V30 COUNTS 63 66 0 0 0
M  V30 BEGIN ATOM
M  V30 1 Fe -0.468390 0.032540 0.029780 0 VAL=6
M  V30 2 O 1.522200 -0.100790 -0.473810 0
M  V30 3 C 2.736680 -0.198610 -0.051060 0
M  V30 4 O 3.099780 -0.224930 1.135740 0 RAD=2 VAL=1
M  V30 5 C 3.783590 -0.279710 -1.172610 0
M  V30 6 O -2.461280 0.241570 0.208790 0
M  V30 7 H 3.575860 -1.191680 -1.750820 0
M  V30 8 H 3.592310 0.553590 -1.862280 0
M  V30 9 C 5.227690 -0.269870 -0.676020 0
M  V30 10 H 5.935230 -0.343610 -1.510620 0
M  V30 11 H 5.404240 -1.104230 0.009280 0
M  V30 12 H 5.439270 0.649700 -0.120970 0
M  V30 13 N -0.017660 1.710900 1.488710 0
M  V30 14 N -0.916920 1.348180 -1.750900 0
M  V30 15 N -0.726690 -1.671970 -1.468870 0
M  V30 16 N -0.593980 -1.255430 1.883120 0
M  V30 17 C -1.122690 2.678090 1.269220 0
M  V30 18 C -1.158450 3.330940 -0.131680 0
M  V30 19 C -1.729910 2.507830 -1.302760 0
M  V30 20 C -1.748230 0.406190 -2.540790 0
M  V30 21 C -1.096680 -0.972310 -2.729570 0
M  V30 22 C -1.849080 -2.470550 -0.919370 0
M  V30 23 C -1.584690 -3.141540 0.447850 0
M  V30 24 C -1.653140 -2.279700 1.724570 0
M  V30 25 C -0.989260 -0.210410 2.859410 0
M  V30 26 C -0.095750 1.039890 2.813470 0
M  V30 27 C 0.276680 1.776220 -2.490590 0
M  V30 28 C 0.459450 -2.509130 -1.710630 0
M  V30 29 C 0.684980 -1.884750 2.258000 0
M  V30 30 C 1.292360 2.379470 1.367450 0
M  V30 31 H -2.059560 2.139480 1.416270 0
M  V30 32 H -1.042170 3.483750 2.022240 0
M  V30 33 H -0.181160 3.753170 -0.387250 0
M  V30 34 H -1.825830 4.198570 -0.038260 0
M  V30 35 H -1.895300 3.188930 -2.157200 0
M  V30 36 H -2.688260 2.101470 -0.983410 0
M  V30 37 H -2.680230 0.288360 -1.990090 0
M  V30 38 H -1.967210 0.818960 -3.542310 0
M  V30 39 H -0.179730 -0.860290 -3.313390 0
M  V30 40 H -1.777720 -1.595230 -3.333380 0
M  V30 41 H -2.695590 -1.789010 -0.820260 0
M  V30 42 H -2.110220 -3.266700 -1.641140 0
M  V30 43 H -2.371960 -3.898220 0.567550 0
M  V30 44 H -0.649770 -3.709760 0.424780 0
M  V30 45 H -1.641240 -2.956920 2.597140 0
M  V30 46 H -2.617410 -1.769840 1.735840 0
M  V30 47 H -0.968710 -0.607010 3.890150 0
M  V30 48 H -2.015130 0.077710 2.630230 0
M  V30 49 H 0.922330 0.753600 3.083920 0
M  V30 50 H -0.449140 1.741750 3.587620 0
M  V30 51 H 0.009220 2.247550 -3.452410 0
M  V30 52 H 0.840620 2.492790 -1.891300 0
M  V30 53 H 0.935380 0.924050 -2.654850 0
M  V30 54 H 0.240400 -3.331810 -2.413060 0
M  V30 55 H 1.257490 -1.881330 -2.102960 0
M  V30 56 H 0.824030 -2.927570 -0.772710 0
M  V30 57 H 0.629160 -2.326610 3.268100 0
M  V30 58 H 0.918350 -2.677730 1.544910 0
M  V30 59 H 1.501080 -1.164330 2.193820 0
M  V30 60 H 2.081970 1.663780 1.589630 0
M  V30 61 H 1.443250 2.721700 0.343710 0
M  V30 62 H 1.361830 3.245120 2.048470 0
M  V30 63 H -3.017450 -0.149080 0.891190 0
M  V30 END ATOM
M  V30 BEGIN BOND
M  V30 1 1 38 20
M  V30 2 1 51 27
M  V30 3 1 40 21
M  V30 4 1 39 21
M  V30 5 1 21 20
M  V30 6 1 21 15
M  V30 7 1 53 27
M  V30 8 1 20 37
M  V30 9 1 20 14
M  V30 10 1 27 52
M  V30 11 1 27 14
M  V30 12 1 54 28
M  V30 13 1 35 19
M  V30 14 1 55 28
M  V30 15 1 8 5
M  V30 16 1 14 19
M  V30 17 1 7 5
M  V30 18 1 28 15
M  V30 19 1 28 56
M  V30 20 1 42 22
M  V30 21 1 10 9
M  V30 22 1 15 22
M  V30 23 1 19 36
M  V30 24 1 19 18
M  V30 25 1 5 9
M  V30 26 1 5 3
M  V30 27 1 22 41
M  V30 28 1 22 23
M  V30 29 1 9 12
M  V30 30 1 9 11
M  V30 31 2 2 3
M  V30 32 1 33 18
M  V30 33 1 18 34
M  V30 34 1 18 17
M  V30 35 1 3 4
M  V30 36 1 1 6
M  V30 37 1 6 63
M  V30 38 1 61 30
M  V30 39 1 44 23
M  V30 40 1 23 43
M  V30 41 1 23 24
M  V30 42 1 17 31
M  V30 43 1 17 13
M  V30 44 1 17 32
M  V30 45 1 30 13
M  V30 46 1 30 60
M  V30 47 1 30 62
M  V30 48 1 13 26
M  V30 49 1 58 29
M  V30 50 1 24 46
M  V30 51 1 24 16
M  V30 52 1 24 45
M  V30 53 1 16 29
M  V30 54 1 16 25
M  V30 55 1 59 29
M  V30 56 1 29 57
M  V30 57 1 48 25
M  V30 58 1 26 25
M  V30 59 1 26 49
M  V30 60 1 26 50
M  V30 61 1 25 47
M  V30 62 9 2 1
M  V30 63 9 13 1
M  V30 64 9 14 1
M  V30 65 9 15 1
M  V30 66 9 16 1
M  V30 END BOND
M  V30 END CTAB
M  END
