
     RDKit          3D

  0  0  0  0  0  0  0  0  0  0999 V3000
M  V30 BEGIN CTAB
M  V30 COUNTS 62 64 0 0 0
M  V30 BEGIN ATOM
M  V30 1 Fe -0.019980 0.001150 0.039490 0 VAL=5
M  V30 2 O 1.877950 0.022280 0.541720 0
M  V30 3 C 3.040220 -0.030430 -0.047240 0
M  V30 4 O 3.222710 -0.262780 -1.245560 0
M  V30 5 C 4.215120 0.222600 0.898630 0
M  V30 6 H 4.080560 1.227460 1.323540 0
M  V30 7 H 4.109170 -0.468400 1.745610 0
M  V30 8 C 5.582720 0.085300 0.233540 0
M  V30 9 H 6.388830 0.282440 0.949270 0
M  V30 10 H 5.678380 0.784600 -0.602460 0
M  V30 11 H 5.716500 -0.922330 -0.172230 0
M  V30 12 N -0.083660 -1.913330 -1.136510 0
M  V30 13 N -0.829660 -0.942080 1.896350 0
M  V30 14 N -0.370650 1.928580 1.184460 0
M  V30 15 N -0.500970 0.931250 -1.904760 0
M  V30 16 C -1.280510 -2.718550 -0.761110 0
M  V30 17 C -1.344590 -3.152180 0.711820 0
M  V30 18 C -1.781440 -2.075280 1.710330 0
M  V30 19 C -1.542520 0.181680 2.562400 0
M  V30 20 C -0.726130 1.472370 2.556240 0
M  V30 21 C -1.492070 2.711790 0.591970 0
M  V30 22 C -1.297130 3.133910 -0.871780 0
M  V30 23 C -1.502950 2.035660 -1.920110 0
M  V30 24 C -1.025590 -0.204260 -2.713440 0
M  V30 25 C -0.178350 -1.464940 -2.552910 0
M  V30 26 C 0.330740 -1.384330 2.699200 0
M  V30 27 C 0.860360 2.741220 1.258380 0
M  V30 28 C 0.793900 1.410970 -2.441310 0
M  V30 29 C 1.154320 -2.705080 -0.966270 0
M  V30 30 H -2.169050 -2.122030 -0.982460 0
M  V30 31 H -1.297200 -3.620860 -1.396540 0
M  V30 32 H -0.416240 -3.643430 1.023080 0
M  V30 33 H -2.114800 -3.932330 0.765340 0
M  V30 34 H -1.962590 -2.544300 2.692220 0
M  V30 35 H -2.717590 -1.644760 1.352610 0
M  V30 36 H -2.476290 0.326830 2.014880 0
M  V30 37 H -1.785310 -0.082260 3.605240 0
M  V30 38 H 0.208150 1.328070 3.104640 0
M  V30 39 H -1.289240 2.255640 3.087370 0
M  V30 40 H -2.393410 2.096740 0.653430 0
M  V30 41 H -1.642170 3.616420 1.206570 0
M  V30 42 H -2.070880 3.885090 -1.075940 0
M  V30 43 H -0.345260 3.657610 -1.013060 0
M  V30 44 H -1.499770 2.491560 -2.924280 0
M  V30 45 H -2.478570 1.580370 -1.745470 0
M  V30 46 H -1.058740 0.072570 -3.779840 0
M  V30 47 H -2.046110 -0.386210 -2.369640 0
M  V30 48 H 0.839800 -1.280230 -2.901790 0
M  V30 49 H -0.599030 -2.263910 -3.183190 0
M  V30 50 H 0.015680 -1.673760 3.714290 0
M  V30 51 H 0.801040 -2.241170 2.215540 0
M  V30 52 H 1.083520 -0.599080 2.746960 0
M  V30 53 H 0.705690 3.643880 1.871190 0
M  V30 54 H 1.659430 2.131390 1.678590 0
M  V30 55 H 1.174080 3.042790 0.259110 0
M  V30 56 H 0.692370 1.694600 -3.500800 0
M  V30 57 H 1.116060 2.287090 -1.876360 0
M  V30 58 H 1.572140 0.655910 -2.326650 0
M  V30 59 H 2.004360 -2.114520 -1.305140 0
M  V30 60 H 1.308630 -2.937090 0.087660 0
M  V30 61 H 1.097630 -3.647600 -1.534240 0
M  V30 62 Cl -3.559860 -0.037430 -0.280590 0 VAL=-1
M  V30 END ATOM
M  V30 BEGIN BOND
M  V30 1 1 46 24
M  V30 2 1 56 28
M  V30 3 1 49 25
M  V30 4 1 44 23
M  V30 5 1 48 25
M  V30 6 1 24 25
M  V30 7 1 24 47
M  V30 8 1 24 15
M  V30 9 1 25 12
M  V30 10 1 28 58
M  V30 11 1 28 15
M  V30 12 1 28 57
M  V30 13 1 23 15
M  V30 14 1 23 45
M  V30 15 1 23 22
M  V30 16 1 61 29
M  V30 17 1 31 16
M  V30 18 1 59 29
M  V30 19 2 4 3
M  V30 20 1 12 29
M  V30 21 1 12 16
M  V30 22 1 42 22
M  V30 23 1 43 22
M  V30 24 1 30 16
M  V30 25 1 29 60
M  V30 26 1 22 21
M  V30 27 1 16 17
M  V30 28 1 10 8
M  V30 29 1 11 8
M  V30 30 1 3 2
M  V30 31 1 3 5
M  V30 32 1 1 2
M  V30 33 1 8 5
M  V30 34 1 8 9
M  V30 35 1 55 27
M  V30 36 1 21 40
M  V30 37 1 21 14
M  V30 38 1 21 41
M  V30 39 1 17 33
M  V30 40 1 17 32
M  V30 41 1 17 18
M  V30 42 1 5 6
M  V30 43 1 5 7
M  V30 44 1 14 27
M  V30 45 1 14 20
M  V30 46 1 27 54
M  V30 47 1 27 53
M  V30 48 1 35 18
M  V30 49 1 18 13
M  V30 50 1 18 34
M  V30 51 1 13 19
M  V30 52 1 13 26
M  V30 53 1 36 19
M  V30 54 1 51 26
M  V30 55 1 20 19
M  V30 56 1 20 39
M  V30 57 1 20 38
M  V30 58 1 19 37
M  V30 59 1 26 52
M  V30 60 1 26 50
M  V30 61 9 12 1
M  V30 62 9 13 1
M  V30 63 9 14 1
M  V30 64 9 15 1
M  V30 END BOND
M  V30 END CTAB
M  END
