
     RDKit          3D

  0  0  0  0  0  0  0  0  0  0999 V3000
M  V30 BEGIN CTAB
M  V30 COUNTS 64 67 0 0 0
M  V30 BEGIN ATOM
M  V30 1 Fe -0.052980 -0.001990 0.018950 0 VAL=6
M  V30 2 O -2.025210 0.007710 0.363980 0
M  V30 3 C -3.205510 -0.019580 -0.173620 0
M  V30 4 O -3.448010 0.031340 -1.385450 0 RAD=2 VAL=1
M  V30 5 C -4.347060 -0.115510 0.845140 0
M  V30 6 H -4.224940 -1.064750 1.386440 0
M  V30 7 H -4.186570 0.671140 1.594720 0
M  V30 8 C -5.739390 -0.019010 0.225480 0
M  V30 9 H -6.518870 -0.106280 0.991220 0
M  V30 10 H -5.886500 -0.809110 -0.516710 0
M  V30 11 H -5.866990 0.936540 -0.293000 0
M  V30 12 N -0.144760 1.759210 -1.384220 0
M  V30 13 N 0.412640 1.199070 1.878470 0
M  V30 14 N 0.063900 -1.769620 1.442080 0
M  V30 15 N 0.269140 -1.196640 -1.847140 0
M  V30 16 C 0.972890 2.672290 -1.025160 0
M  V30 17 C 0.922310 3.247950 0.407330 0
M  V30 18 C 1.320050 2.342970 1.588880 0
M  V30 19 C 1.103770 0.182850 2.714030 0
M  V30 20 C 0.363870 -1.161420 2.770250 0
M  V30 21 C 1.160710 -2.659390 0.973960 0
M  V30 22 C 0.994100 -3.229430 -0.451030 0
M  V30 23 C 1.244460 -2.304510 -1.656890 0
M  V30 24 C 0.828940 -0.158640 -2.753630 0
M  V30 25 C 0.028840 1.151800 -2.735890 0
M  V30 26 C -0.822470 1.670060 2.529070 0
M  V30 27 C -1.202110 -2.522850 1.540450 0
M  V30 28 C -1.011590 -1.718170 -2.364560 0
M  V30 29 C -1.429420 2.491640 -1.355500 0
M  V30 30 H 1.907150 2.127910 -1.161360 0
M  V30 31 H 0.969200 3.522380 -1.729980 0
M  V30 32 H -0.047350 3.720790 0.593030 0
M  V30 33 H 1.647400 4.072280 0.421670 0
M  V30 34 H 1.400090 2.973350 2.491160 0
M  V30 35 H 2.308920 1.934030 1.389600 0
M  V30 36 H 2.095210 0.034160 2.290040 0
M  V30 37 H 1.228340 0.547200 3.748220 0
M  V30 38 H -0.590930 -1.022390 3.282650 0
M  V30 39 H 0.953730 -1.855530 3.389160 0
M  V30 40 H 2.090360 -2.093140 1.027710 0
M  V30 41 H 1.242470 -3.511460 1.671790 0
M  V30 42 H 1.743340 -4.027150 -0.538700 0
M  V30 43 H 0.028850 -3.736710 -0.548590 0
M  V30 44 H 1.257430 -2.927210 -2.567580 0
M  V30 45 H 2.232720 -1.860670 -1.550710 0
M  V30 46 H 0.858370 -0.527580 -3.792770 0
M  V30 47 H 1.852790 0.031740 -2.434840 0
M  V30 48 H -0.972200 0.963180 -3.128300 0
M  V30 49 H 0.513800 1.864640 -3.421230 0
M  V30 50 H -0.611300 2.099930 3.522300 0
M  V30 51 H -1.295160 2.430000 1.905760 0
M  V30 52 H -1.534900 0.851010 2.613090 0
M  V30 53 H -1.106200 -3.378350 2.229200 0
M  V30 54 H -1.986560 -1.850130 1.881210 0
M  V30 55 H -1.501390 -2.887270 0.558280 0
M  V30 56 H -0.887310 -2.132610 -3.378800 0
M  V30 57 H -1.370670 -2.511940 -1.707040 0
M  V30 58 H -1.776660 -0.941810 -2.358580 0
M  V30 59 H -2.229070 1.825160 -1.673210 0
M  V30 60 H -1.655640 2.810930 -0.338370 0
M  V30 61 H -1.391510 3.378160 -2.009810 0
M  V30 62 N 2.173680 0.031820 -0.081200 0
M  V30 63 C 3.361610 0.037450 -0.104720 0
M  V30 64 S 4.986710 0.043190 -0.128510 0
M  V30 END ATOM
M  V30 BEGIN BOND
M  V30 1 1 46 24
M  V30 2 1 49 25
M  V30 3 1 56 28
M  V30 4 1 48 25
M  V30 5 1 24 25
M  V30 6 1 24 47
M  V30 7 1 24 15
M  V30 8 1 25 12
M  V30 9 1 44 23
M  V30 10 1 28 58
M  V30 11 1 28 15
M  V30 12 1 28 57
M  V30 13 1 61 29
M  V30 14 1 15 23
M  V30 15 1 31 16
M  V30 16 1 59 29
M  V30 17 1 23 45
M  V30 18 1 23 22
M  V30 19 1 4 3
M  V30 20 1 12 29
M  V30 21 1 12 16
M  V30 22 1 29 60
M  V30 23 1 30 16
M  V30 24 1 16 17
M  V30 25 1 43 22
M  V30 26 1 42 22
M  V30 27 1 10 8
M  V30 28 1 22 21
M  V30 29 1 11 8
M  V30 30 2 3 2
M  V30 31 1 3 5
M  V30 32 2 64 63
M  V30 33 2 63 62
M  V30 34 1 62 1
M  V30 35 1 8 5
M  V30 36 1 8 9
M  V30 37 1 17 33
M  V30 38 1 17 32
M  V30 39 1 17 18
M  V30 40 1 55 27
M  V30 41 1 5 6
M  V30 42 1 5 7
M  V30 43 1 21 40
M  V30 44 1 21 14
M  V30 45 1 21 41
M  V30 46 1 35 18
M  V30 47 1 14 27
M  V30 48 1 14 20
M  V30 49 1 27 54
M  V30 50 1 27 53
M  V30 51 1 18 13
M  V30 52 1 18 34
M  V30 53 1 13 26
M  V30 54 1 13 19
M  V30 55 1 51 26
M  V30 56 1 36 19
M  V30 57 1 26 52
M  V30 58 1 26 50
M  V30 59 1 19 20
M  V30 60 1 19 37
M  V30 61 1 20 38
M  V30 62 1 20 39
M  V30 63 9 2 1
M  V30 64 9 12 1
M  V30 65 9 13 1
M  V30 66 9 14 1
M  V30 67 9 15 1
M  V30 END BOND
M  V30 END CTAB
M  END
