
     RDKit          3D

  0  0  0  0  0  0  0  0  0  0999 V3000
M  V30 BEGIN CTAB
M  V30 COUNTS 62 66 0 0 0
M  V30 BEGIN ATOM
M  V30 1 Fe 0.562540 0.085750 0.166680 0 CHG=2 VAL=6
M  V30 2 N -1.117110 -0.063330 1.620500 0
M  V30 3 C -0.937100 1.063930 2.598340 0
M  V30 4 H 0.031890 0.892840 3.068440 0
M  V30 5 H -1.714200 0.985560 3.370560 0
M  V30 6 C -0.974530 2.485960 2.011420 0
M  V30 7 H -1.970240 2.721810 1.620550 0
M  V30 8 H -0.861730 3.151030 2.876180 0
M  V30 9 C 0.113640 2.923210 1.013900 0
M  V30 10 H 0.002590 4.002790 0.843020 0
M  V30 11 H 1.098410 2.743240 1.444820 0
M  V30 12 N 0.086230 2.234570 -0.323360 0
M  V30 13 C 1.235230 2.682070 -1.188530 0
M  V30 14 H 0.882890 2.701800 -2.221340 0
M  V30 15 H 1.517490 3.710000 -0.932210 0
M  V30 16 C 2.459110 1.783620 -1.072760 0
M  V30 17 H 3.212310 2.097190 -1.807530 0
M  V30 18 H 2.894220 1.865500 -0.076450 0
M  V30 19 N 2.123810 0.334690 -1.275860 0
M  V30 20 C 3.342260 -0.482750 -0.953980 0
M  V30 21 H 4.043570 -0.379420 -1.792240 0
M  V30 22 H 3.802860 -0.025920 -0.075450 0
M  V30 23 C 3.094660 -1.965180 -0.662030 0
M  V30 24 H 2.567780 -2.459230 -1.484690 0
M  V30 25 H 4.083090 -2.437890 -0.632680 0
M  V30 26 C 2.433060 -2.248690 0.691840 0
M  V30 27 H 2.604850 -3.294110 0.979850 0
M  V30 28 H 2.887170 -1.610090 1.452160 0
M  V30 29 N 0.955560 -1.992880 0.733630 0
M  V30 30 C 0.491510 -1.955660 2.156930 0
M  V30 31 H 0.524390 -2.962990 2.593330 0
M  V30 32 H 1.188030 -1.321430 2.704600 0
M  V30 33 C -0.928390 -1.406530 2.280760 0
M  V30 34 H -1.634240 -2.103370 1.825040 0
M  V30 35 H -1.195680 -1.334830 3.341340 0
M  V30 36 C -1.164540 2.549990 -1.059100 0
M  V30 37 H -1.200860 3.616260 -1.315580 0
M  V30 38 H -2.040320 2.320910 -0.457260 0
M  V30 39 H -1.207500 1.955210 -1.972310 0
M  V30 40 C 1.636370 0.052440 -2.650150 0
M  V30 41 H 2.366770 0.384090 -3.398300 0
M  V30 42 H 0.682510 0.552240 -2.819800 0
M  V30 43 H 1.472640 -1.020070 -2.760230 0
M  V30 44 C 0.233570 -3.025230 -0.050720 0
M  V30 45 H 0.472260 -4.027920 0.325140 0
M  V30 46 H 0.516810 -2.956640 -1.100680 0
M  V30 47 H -0.841330 -2.867950 0.008620 0
M  V30 48 C -2.410540 -0.034180 0.907520 0
M  V30 49 H -2.814060 0.980090 0.905440 0
M  V30 50 H -3.152540 -0.658270 1.415560 0
M  V30 51 C -2.203540 -0.473680 -0.547480 0
M  V30 52 O -1.015370 -0.488200 -1.002040 0
M  V30 53 N -3.238830 -0.801130 -1.303630 0
M  V30 54 C -3.046560 -1.249710 -2.694240 0
M  V30 55 H -3.411500 -0.479130 -3.380340 0
M  V30 56 H -3.622570 -2.166020 -2.849010 0
M  V30 57 H -1.991740 -1.440080 -2.879160 0
M  V30 58 C -4.639520 -0.759570 -0.847490 0
M  V30 59 H -4.975480 -1.762600 -0.565330 0
M  V30 60 H -5.257290 -0.402250 -1.674470 0
M  V30 61 H -4.772310 -0.075860 -0.009770 0
M  V30 62 F 1.692450 0.573110 1.483170 0
M  V30 END ATOM
M  V30 BEGIN BOND
M  V30 1 1 41 40
M  V30 2 1 55 54
M  V30 3 1 57 54
M  V30 4 1 56 54
M  V30 5 1 42 40
M  V30 6 1 43 40
M  V30 7 1 54 53
M  V30 8 1 40 19
M  V30 9 1 14 13
M  V30 10 1 39 36
M  V30 11 1 17 16
M  V30 12 1 21 20
M  V30 13 1 60 58
M  V30 14 1 24 23
M  V30 15 1 37 36
M  V30 16 1 53 58
M  V30 17 1 53 51
M  V30 18 1 19 16
M  V30 19 1 19 20
M  V30 20 1 13 16
M  V30 21 1 13 15
M  V30 22 1 13 12
M  V30 23 1 46 44
M  V30 24 1 16 18
M  V30 25 1 36 38
M  V30 26 1 36 12
M  V30 27 2 52 51
M  V30 28 1 20 23
M  V30 29 1 20 22
M  V30 30 1 58 59
M  V30 31 1 58 61
M  V30 32 1 23 25
M  V30 33 1 23 26
M  V30 34 1 51 48
M  V30 35 1 12 9
M  V30 36 1 44 47
M  V30 37 1 44 45
M  V30 38 1 44 29
M  V30 39 1 1 62
M  V30 40 1 26 29
M  V30 41 1 26 27
M  V30 42 1 26 28
M  V30 43 1 29 30
M  V30 44 1 10 9
M  V30 45 1 49 48
M  V30 46 1 48 50
M  V30 47 1 48 2
M  V30 48 1 9 11
M  V30 49 1 9 6
M  V30 50 1 2 33
M  V30 51 1 2 3
M  V30 52 1 7 6
M  V30 53 1 34 33
M  V30 54 1 6 3
M  V30 55 1 6 8
M  V30 56 1 30 33
M  V30 57 1 30 31
M  V30 58 1 30 32
M  V30 59 1 33 35
M  V30 60 1 3 4
M  V30 61 1 3 5
M  V30 62 9 2 1
M  V30 63 9 12 1
M  V30 64 9 19 1
M  V30 65 9 29 1
M  V30 66 9 52 1
M  V30 END BOND
M  V30 END CTAB
M  END
