
     RDKit          3D

  0  0  0  0  0  0  0  0  0  0999 V3000
M  V30 BEGIN CTAB
M  V30 COUNTS 59 63 0 0 0
M  V30 BEGIN ATOM
M  V30 1 Fe 0.060080 0.009180 -0.102740 0 VAL=6
M  V30 2 N -1.527000 -0.998200 1.182500 0
M  V30 3 C -1.502900 -0.255300 2.476300 0
M  V30 4 C -1.823800 1.257800 2.424000 0
M  V30 5 C -0.862700 2.250200 1.730700 0
M  V30 6 N -0.742100 2.119900 0.255000 0
M  V30 7 C 0.300400 3.027500 -0.305800 0
M  V30 8 C 1.691300 2.398500 -0.472700 0
M  V30 9 N 1.659900 1.105900 -1.200400 0
M  V30 10 C 2.979100 0.424100 -1.123000 0
M  V30 11 C 2.961000 -1.090400 -1.400500 0
M  V30 12 C 2.410400 -2.007900 -0.290000 0
M  V30 13 N 0.928000 -2.068100 -0.206100 0
M  V30 14 C 0.472900 -2.607600 1.098200 0
M  V30 15 C -1.031200 -2.397500 1.352000 0
M  V30 16 C -2.025500 2.426000 -0.409300 0
M  V30 17 C 1.255200 1.291200 -2.607400 0
M  V30 18 C 0.395500 -2.858100 -1.328400 0
M  V30 19 C -2.912700 -1.031100 0.638900 0
M  V30 20 C -3.051500 -1.402700 -0.845500 0
M  V30 21 C -2.390100 -0.391000 -1.799800 0
M  V30 22 O -1.097200 -0.281700 -1.681200 0
M  V30 23 O -3.082100 0.252700 -2.583200 0
M  V30 24 H -0.502900 -0.382100 2.890100 0
M  V30 25 H -2.229200 -0.721300 3.166100 0
M  V30 26 H -2.846100 1.419200 2.066300 0
M  V30 27 H -1.846200 1.572800 3.475900 0
M  V30 28 H -1.213000 3.269700 1.973100 0
M  V30 29 H 0.136400 2.118600 2.145100 0
M  V30 30 H -0.055400 3.362500 -1.282700 0
M  V30 31 H 0.400700 3.930800 0.314900 0
M  V30 32 H 2.332800 3.127000 -0.998400 0
M  V30 33 H 2.131900 2.214500 0.505900 0
M  V30 34 H 3.667600 0.901600 -1.840900 0
M  V30 35 H 3.398100 0.593400 -0.129800 0
M  V30 36 H 2.464100 -1.299800 -2.353800 0
M  V30 37 H 4.009000 -1.381600 -1.547200 0
M  V30 38 H 2.800100 -3.027500 -0.453500 0
M  V30 39 H 2.800000 -1.673100 0.672100 0
M  V30 40 H 0.680800 -3.689400 1.173800 0
M  V30 41 H 1.041700 -2.094100 1.871900 0
M  V30 42 H -1.598100 -3.032200 0.669000 0
M  V30 43 H -1.259100 -2.758800 2.366400 0
M  V30 44 H -2.321200 3.474100 -0.237600 0
M  V30 45 H -2.815100 1.780000 -0.031600 0
M  V30 46 H -1.948700 2.226200 -1.477700 0
M  V30 47 H 1.932400 1.990900 -3.124500 0
M  V30 48 H 0.226700 1.643900 -2.660800 0
M  V30 49 H 1.268700 0.328100 -3.117600 0
M  V30 50 H 0.776800 -3.892600 -1.300800 0
M  V30 51 H 0.672100 -2.391400 -2.273300 0
M  V30 52 H -0.690300 -2.867900 -1.299600 0
M  V30 53 H -3.346500 -0.040300 0.774200 0
M  V30 54 H -3.520800 -1.720600 1.249700 0
M  V30 55 H -2.643300 -2.402400 -1.033800 0
M  V30 56 H -4.119700 -1.442900 -1.078100 0
M  V30 57 N 1.280700 0.227500 1.671200 0
M  V30 58 N 2.423000 0.264700 2.037900 0 CHG=1 VAL=4
M  V30 59 N 3.534100 0.298900 2.386700 0 CHG=-1 VAL=2
M  V30 END ATOM
M  V30 BEGIN BOND
M  V30 1 1 47 17
M  V30 2 1 49 17
M  V30 3 1 48 17
M  V30 4 1 17 9
M  V30 5 2 23 21
M  V30 6 1 36 11
M  V30 7 1 51 18
M  V30 8 1 34 10
M  V30 9 1 21 22
M  V30 10 1 21 20
M  V30 11 1 37 11
M  V30 12 1 46 16
M  V30 13 1 11 10
M  V30 14 1 11 12
M  V30 15 1 18 50
M  V30 16 1 18 52
M  V30 17 1 18 13
M  V30 18 1 30 7
M  V30 19 1 9 10
M  V30 20 1 9 8
M  V30 21 1 10 35
M  V30 22 1 56 20
M  V30 23 1 55 20
M  V30 24 1 32 8
M  V30 25 1 20 19
M  V30 26 1 8 7
M  V30 27 1 8 33
M  V30 28 1 38 12
M  V30 29 1 16 44
M  V30 30 1 16 45
M  V30 31 1 16 6
M  V30 32 1 7 6
M  V30 33 1 7 31
M  V30 34 1 12 13
M  V30 35 1 12 39
M  V30 36 1 13 14
M  V30 37 1 6 5
M  V30 38 1 19 53
M  V30 39 1 19 2
M  V30 40 1 19 54
M  V30 41 1 42 15
M  V30 42 1 14 40
M  V30 43 1 14 15
M  V30 44 1 14 41
M  V30 45 1 2 15
M  V30 46 1 2 3
M  V30 47 1 15 43
M  V30 48 2 57 58
M  V30 49 1 5 28
M  V30 50 1 5 29
M  V30 51 1 5 4
M  V30 52 2 58 59
M  V30 53 1 26 4
M  V30 54 1 4 3
M  V30 55 1 4 27
M  V30 56 1 3 24
M  V30 57 1 3 25
M  V30 58 1 1 22
M  V30 59 1 1 57
M  V30 60 9 2 1
M  V30 61 9 6 1
M  V30 62 9 9 1
M  V30 63 9 13 1
M  V30 END BOND
M  V30 END CTAB
M  END
