
     RDKit          3D

  0  0  0  0  0  0  0  0  0  0999 V3000
M  V30 BEGIN CTAB
M  V30 COUNTS 81 83 0 0 0
M  V30 BEGIN ATOM
M  V30 1 Fe 0.000690 0.000530 0.407050 0 CHG=2 VAL=5
M  V30 2 N 0.000990 0.000720 2.711720 0
M  V30 3 C 1.420400 0.101280 3.128660 0
M  V30 4 C 2.301230 -0.648720 2.135340 0
M  V30 5 N 2.010860 -0.132710 0.788050 0
M  V30 6 C 3.045190 0.070880 -0.056020 0
M  V30 7 N 4.175890 -0.685010 -0.025860 0
M  V30 8 C 4.184340 -2.110450 0.303310 0
M  V30 9 C 5.501580 -0.123920 -0.320420 0
M  V30 10 N 3.000870 1.091640 -0.942950 0
M  V30 11 C 3.548030 0.987490 -2.299220 0
M  V30 12 C 2.296340 2.333760 -0.655810 0
M  V30 13 C -0.795980 1.179630 3.128630 0
M  V30 14 C -0.587200 2.317250 2.135010 0
M  V30 15 N -0.889980 1.807400 0.788170 0
M  V30 16 C -1.584320 2.600550 -0.055920 0
M  V30 17 N -1.495860 3.957760 -0.026300 0
M  V30 18 C -0.265650 4.678600 0.301440 0
M  V30 19 C -2.645270 4.824490 -0.320720 0
M  V30 20 N -2.446380 2.050770 -0.942040 0
M  V30 21 C -2.632510 2.576950 -2.297900 0
M  V30 22 C -3.168590 0.819020 -0.654220 0
M  V30 23 C -0.621540 -1.279020 3.128320 0
M  V30 24 C -1.711900 -1.666110 2.135230 0
M  V30 25 N -1.119980 -1.673840 0.787970 0
M  V30 26 C -1.461170 -2.671640 -0.055620 0
M  V30 27 N -2.680880 -3.273400 -0.024330 0
M  V30 28 C -3.919890 -2.568530 0.305040 0
M  V30 29 C -2.857350 -4.702220 -0.318340 0
M  V30 30 N -0.555650 -3.143660 -0.943210 0
M  V30 31 C -0.920550 -3.566590 -2.298860 0
M  V30 32 C 0.872580 -3.153600 -0.657510 0
M  V30 33 H 1.552590 -0.279590 4.150340 0
M  V30 34 H 1.705850 1.155760 3.124650 0
M  V30 35 H 3.352780 -0.496370 2.399830 0
M  V30 36 H 2.107080 -1.726790 2.199960 0
M  V30 37 H 3.169670 -2.496120 0.339040 0
M  V30 38 H 4.677460 -2.294790 1.264520 0
M  V30 39 H 4.733670 -2.650710 -0.475280 0
M  V30 40 H 5.463960 0.964970 -0.291500 0
M  V30 41 H 5.872330 -0.449550 -1.298270 0
M  V30 42 H 6.200240 -0.470600 0.447850 0
M  V30 43 H 3.832340 -0.042940 -2.510830 0
M  V30 44 H 4.414930 1.642990 -2.434470 0
M  V30 45 H 2.764270 1.276780 -3.006190 0
M  V30 46 H 2.046470 2.364590 0.404530 0
M  V30 47 H 1.377570 2.406740 -1.245760 0
M  V30 48 H 2.949330 3.179050 -0.901020 0
M  V30 49 H -0.532360 1.484720 4.150290 0
M  V30 50 H -1.851870 0.899370 3.124600 0
M  V30 51 H -1.244200 3.152220 2.399720 0
M  V30 52 H 0.443850 2.687300 2.198600 0
M  V30 53 H 0.575930 3.993020 0.337140 0
M  V30 54 H -0.352110 5.198570 1.262280 0
M  V30 55 H -0.073240 5.423900 -0.477900 0
M  V30 56 H -3.569110 4.246920 -0.290850 0
M  V30 57 H -2.549570 5.307870 -1.298910 0
M  V30 58 H -2.694290 5.603340 0.447090 0
M  V30 59 H -1.884760 3.340680 -2.510070 0
M  V30 60 H -3.634950 2.997330 -2.431650 0
M  V30 61 H -2.489840 1.754270 -3.005440 0
M  V30 62 H -3.067350 0.586250 0.405610 0
M  V30 63 H -2.773700 -0.012480 -1.245990 0
M  V30 64 H -4.227860 0.961660 -0.896480 0
M  V30 65 H -1.016960 -1.203660 4.150260 0
M  V30 66 H 0.148870 -2.053590 3.123470 0
M  V30 67 H -2.107260 -2.652190 2.400190 0
M  V30 68 H -2.547210 -0.957440 2.199320 0
M  V30 69 H -3.747080 -1.496900 0.341230 0
M  V30 70 H -4.326040 -2.903920 1.266080 0
M  V30 71 H -4.662350 -2.774120 -0.473640 0
M  V30 72 H -1.895360 -5.213780 -0.289180 0
M  V30 73 H -3.324720 -4.861100 -1.296090 0
M  V30 74 H -3.506760 -5.133780 0.450130 0
M  V30 75 H -1.955790 -3.299410 -2.509390 0
M  V30 76 H -0.784870 -4.644960 -2.433680 0
M  V30 77 H -0.279740 -3.031880 -3.006820 0
M  V30 78 H 1.024810 -2.949850 0.402170 0
M  V30 79 H 1.394410 -2.395610 -1.249630 0
M  V30 80 H 1.278230 -4.142220 -0.900720 0
M  V30 81 Br 0.000270 -0.000010 -2.072950 0
M  V30 END ATOM
M  V30 BEGIN BOND
M  V30 1 1 77 31
M  V30 2 1 45 11
M  V30 3 1 61 21
M  V30 4 1 43 11
M  V30 5 1 59 21
M  V30 6 1 75 31
M  V30 7 1 44 11
M  V30 8 1 76 31
M  V30 9 1 60 21
M  V30 10 1 11 10
M  V30 11 1 31 30
M  V30 12 1 21 20
M  V30 13 1 81 1
M  V30 14 1 57 19
M  V30 15 1 41 9
M  V30 16 1 73 29
M  V30 17 1 79 32
M  V30 18 1 63 22
M  V30 19 1 47 12
M  V30 20 1 30 32
M  V30 21 1 30 26
M  V30 22 1 10 12
M  V30 23 1 10 6
M  V30 24 1 20 22
M  V30 25 1 20 16
M  V30 26 1 48 12
M  V30 27 1 80 32
M  V30 28 1 64 22
M  V30 29 1 32 78
M  V30 30 1 12 46
M  V30 31 1 22 62
M  V30 32 1 55 18
M  V30 33 1 39 8
M  V30 34 1 71 28
M  V30 35 1 19 56
M  V30 36 1 19 17
M  V30 37 1 19 58
M  V30 38 1 9 40
M  V30 39 1 9 7
M  V30 40 1 9 42
M  V30 41 1 29 72
M  V30 42 1 29 27
M  V30 43 1 29 74
M  V30 44 1 6 7
M  V30 45 2 6 5
M  V30 46 1 16 17
M  V30 47 2 16 15
M  V30 48 1 26 27
M  V30 49 2 26 25
M  V30 50 1 17 18
M  V30 51 1 7 8
M  V30 52 1 27 28
M  V30 53 1 18 53
M  V30 54 1 18 54
M  V30 55 1 8 37
M  V30 56 1 8 38
M  V30 57 1 28 69
M  V30 58 1 28 70
M  V30 59 1 25 24
M  V30 60 1 5 4
M  V30 61 1 15 14
M  V30 62 1 14 52
M  V30 63 1 14 51
M  V30 64 1 14 13
M  V30 65 1 24 68
M  V30 66 1 24 67
M  V30 67 1 24 23
M  V30 68 1 4 36
M  V30 69 1 4 35
M  V30 70 1 4 3
M  V30 71 1 2 23
M  V30 72 1 2 13
M  V30 73 1 2 3
M  V30 74 1 66 23
M  V30 75 1 50 13
M  V30 76 1 34 3
M  V30 77 1 23 65
M  V30 78 1 13 49
M  V30 79 1 3 33
M  V30 80 9 2 1
M  V30 81 9 5 1
M  V30 82 9 15 1
M  V30 83 9 25 1
M  V30 END BOND
M  V30 END CTAB
M  END
