
     RDKit          3D

  0  0  0  0  0  0  0  0  0  0999 V3000
M  V30 BEGIN CTAB
M  V30 COUNTS 81 83 0 0 0
M  V30 BEGIN ATOM
M  V30 1 Fe 0.000120 -0.000240 0.288270 0 CHG=2 VAL=5
M  V30 2 N 0.000550 -0.000120 2.594980 0
M  V30 3 C 1.420720 -0.092080 3.012240 0
M  V30 4 C 2.190740 -0.963980 2.025940 0
M  V30 5 N 1.964310 -0.429280 0.675010 0
M  V30 6 C 2.995240 -0.401430 -0.194520 0
M  V30 7 N 4.001620 -1.316220 -0.172630 0
M  V30 8 C 3.808650 -2.718770 0.196730 0
M  V30 9 C 5.385280 -0.966450 -0.521920 0
M  V30 10 N 3.078510 0.596930 -1.104890 0
M  V30 11 C 3.544730 0.378070 -2.477170 0
M  V30 12 C 2.569130 1.933990 -0.831070 0
M  V30 13 C -0.629750 1.275770 3.012520 0
M  V30 14 C -0.260270 2.378620 2.026000 0
M  V30 15 N -0.610470 1.915360 0.675110 0
M  V30 16 C -1.150230 2.794520 -0.194090 0
M  V30 17 N -0.861220 4.123500 -0.171970 0
M  V30 18 C 0.450020 4.657720 0.196970 0
M  V30 19 C -1.856060 5.146870 -0.521070 0
M  V30 20 N -2.056460 2.367760 -1.104640 0
M  V30 21 C -2.099430 2.880900 -2.476950 0
M  V30 22 C -2.959400 1.257730 -0.831330 0
M  V30 23 C -0.789040 -1.183990 3.012560 0
M  V30 24 C -1.929320 -1.415070 2.026470 0
M  V30 25 N -1.353500 -1.486530 0.675340 0
M  V30 26 C -1.845380 -2.393140 -0.194040 0
M  V30 27 N -3.140890 -2.807030 -0.171840 0
M  V30 28 C -4.258800 -1.938570 0.198080 0
M  V30 29 C -3.530210 -4.179930 -0.521750 0
M  V30 30 N -1.022960 -2.964620 -1.104840 0
M  V30 31 C -1.446220 -3.257960 -2.477110 0
M  V30 32 C 0.389780 -3.192260 -0.831820 0
M  V30 33 H 1.500320 -0.479230 4.037000 0
M  V30 34 H 1.847660 0.913410 2.999800 0
M  V30 35 H 3.254830 -0.949530 2.284560 0
M  V30 36 H 1.855240 -2.005760 2.104240 0
M  V30 37 H 2.749420 -2.951850 0.258880 0
M  V30 38 H 4.288410 -2.948920 1.154750 0
M  V30 39 H 4.258090 -3.352940 -0.574980 0
M  V30 40 H 5.509330 0.116380 -0.526610 0
M  V30 41 H 5.671190 -1.369610 -1.499410 0
M  V30 42 H 6.050100 -1.392500 0.236340 0
M  V30 43 H 3.681060 -0.687200 -2.662010 0
M  V30 44 H 4.484360 0.906150 -2.671240 0
M  V30 45 H 2.775230 0.748200 -3.162150 0
M  V30 46 H 2.374980 2.028290 0.237310 0
M  V30 47 H 1.643530 2.121360 -1.383720 0
M  V30 48 H 3.323300 2.670490 -1.130310 0
M  V30 49 H -0.333730 1.538360 4.037100 0
M  V30 50 H -1.714000 1.142750 3.000760 0
M  V30 51 H -0.804760 3.292860 2.284900 0
M  V30 52 H 0.809700 2.608980 2.103890 0
M  V30 53 H 1.181560 3.857000 0.259040 0
M  V30 54 H 0.409690 5.188450 1.154900 0
M  V30 55 H 0.774250 5.363910 -0.574970 0
M  V30 56 H -2.855790 4.712790 -0.525980 0
M  V30 57 H -1.649830 5.596330 -1.498430 0
M  V30 58 H -1.819640 5.935440 0.237420 0
M  V30 59 H -1.244960 3.531610 -2.661380 0
M  V30 60 H -3.026510 3.430520 -2.671520 0
M  V30 61 H -2.034780 2.029400 -3.161870 0
M  V30 62 H -2.944130 1.042070 0.236980 0
M  V30 63 H -2.658430 0.362750 -1.384220 0
M  V30 64 H -3.974330 1.542390 -1.130730 0
M  V30 65 H -1.163920 -1.059210 4.037370 0
M  V30 66 H -0.131620 -2.056390 3.000110 0
M  V30 67 H -2.448770 -2.343790 2.285350 0
M  V30 68 H -2.663760 -0.603630 2.104850 0
M  V30 69 H -3.930760 -0.904850 0.260950 0
M  V30 70 H -4.698100 -2.239520 1.155880 0
M  V30 71 H -5.032710 -2.009990 -0.573720 0
M  V30 72 H -2.654600 -4.828920 -0.527280 0
M  V30 73 H -4.022780 -4.225250 -1.499050 0
M  V30 74 H -4.231290 -4.542980 0.236630 0
M  V30 75 H -2.436740 -2.842660 -2.661360 0
M  V30 76 H -1.459350 -4.335610 -2.671850 0
M  V30 77 H -0.740930 -2.776540 -3.162030 0
M  V30 78 H 0.569190 -3.072350 0.236570 0
M  V30 79 H 1.014470 -2.483750 -1.384160 0
M  V30 80 H 0.650400 -4.213330 -1.132220 0
M  V30 81 Cl -0.000060 0.000060 -1.996760 0
M  V30 END ATOM
M  V30 BEGIN BOND
M  V30 1 1 45 11
M  V30 2 1 77 31
M  V30 3 1 61 21
M  V30 4 1 76 31
M  V30 5 1 60 21
M  V30 6 1 44 11
M  V30 7 1 43 11
M  V30 8 1 59 21
M  V30 9 1 75 31
M  V30 10 1 11 10
M  V30 11 1 31 30
M  V30 12 1 21 20
M  V30 13 1 81 1
M  V30 14 1 41 9
M  V30 15 1 73 29
M  V30 16 1 57 19
M  V30 17 1 63 22
M  V30 18 1 79 32
M  V30 19 1 47 12
M  V30 20 1 80 32
M  V30 21 1 64 22
M  V30 22 1 48 12
M  V30 23 1 10 12
M  V30 24 1 10 6
M  V30 25 1 30 32
M  V30 26 1 30 26
M  V30 27 1 20 22
M  V30 28 1 20 16
M  V30 29 1 32 78
M  V30 30 1 22 62
M  V30 31 1 12 46
M  V30 32 1 39 8
M  V30 33 1 55 18
M  V30 34 1 71 28
M  V30 35 1 72 29
M  V30 36 1 40 9
M  V30 37 1 56 19
M  V30 38 1 9 7
M  V30 39 1 9 42
M  V30 40 1 29 27
M  V30 41 1 29 74
M  V30 42 1 19 17
M  V30 43 1 19 58
M  V30 44 1 6 7
M  V30 45 2 6 5
M  V30 46 1 16 17
M  V30 47 2 16 15
M  V30 48 1 26 27
M  V30 49 2 26 25
M  V30 50 1 7 8
M  V30 51 1 17 18
M  V30 52 1 27 28
M  V30 53 1 8 37
M  V30 54 1 8 38
M  V30 55 1 18 53
M  V30 56 1 18 54
M  V30 57 1 28 69
M  V30 58 1 28 70
M  V30 59 1 5 4
M  V30 60 1 15 14
M  V30 61 1 25 24
M  V30 62 1 4 36
M  V30 63 1 4 35
M  V30 64 1 4 3
M  V30 65 1 14 52
M  V30 66 1 14 51
M  V30 67 1 14 13
M  V30 68 1 24 68
M  V30 69 1 24 67
M  V30 70 1 24 23
M  V30 71 1 2 3
M  V30 72 1 2 13
M  V30 73 1 2 23
M  V30 74 1 34 3
M  V30 75 1 66 23
M  V30 76 1 50 13
M  V30 77 1 3 33
M  V30 78 1 13 49
M  V30 79 1 23 65
M  V30 80 9 2 1
M  V30 81 9 5 1
M  V30 82 9 15 1
M  V30 83 9 25 1
M  V30 END BOND
M  V30 END CTAB
M  END
