
     RDKit          3D

  0  0  0  0  0  0  0  0  0  0999 V3000
M  V30 BEGIN CTAB
M  V30 COUNTS 61 62 0 0 0
M  V30 BEGIN ATOM
M  V30 1 Fe 0.046500 -0.442340 -0.010660 0 CHG=2 VAL=5
M  V30 2 N 1.473640 0.354390 0.823000 0
M  V30 3 N -1.707220 -0.435820 0.518600 0
M  V30 4 N 0.263430 -1.886150 1.524630 0
M  V30 5 C -1.114540 -2.386890 1.791760 0
M  V30 6 C 1.166440 -3.052780 1.300760 0
M  V30 7 C 0.803150 -1.048270 2.635160 0
M  V30 8 C 1.966620 -0.245610 2.075850 0
M  V30 9 C 2.295300 1.290800 0.193520 0
M  V30 10 N 3.548390 0.939810 -0.140720 0
M  V30 11 N 1.837460 2.524080 -0.021060 0
M  V30 12 C 0.699190 3.055980 0.731890 0
M  V30 13 C 2.223120 3.323860 -1.194590 0
M  V30 14 C 4.663930 1.900890 -0.193350 0
M  V30 15 C -2.658700 0.439150 0.004120 0
M  V30 16 N -3.218280 1.348380 0.825660 0
M  V30 17 N -3.043470 0.323280 -1.266390 0
M  V30 18 C -3.482650 1.473580 -2.071020 0
M  V30 19 C -4.603320 1.827710 0.674930 0
M  V30 20 C -2.502820 1.892210 1.983470 0
M  V30 21 C -2.881460 -0.923920 -2.024600 0
M  V30 22 H -1.336420 -3.114500 1.008030 0
M  V30 23 H -1.169800 -2.891880 2.763990 0
M  V30 24 H -2.085350 -0.619290 2.607600 0
M  V30 25 C -2.096320 -1.232360 1.698860 0
M  V30 26 H -3.116090 -1.615380 1.581760 0
M  V30 27 H 1.101130 -1.667300 3.489230 0
M  V30 28 H 0.020320 -0.360320 2.963630 0
M  V30 29 H 2.846720 -0.875810 1.910430 0
M  V30 30 H 2.260760 0.544950 2.776490 0
M  V30 31 C 3.917640 -0.446830 -0.459020 0
M  V30 32 H 4.483840 -0.447080 -1.395290 0
M  V30 33 H 4.552750 -0.866550 0.328630 0
M  V30 34 H 3.024610 -1.054040 -0.596690 0
M  V30 35 H 5.520520 1.444820 0.311470 0
M  V30 36 H 4.948790 2.130090 -1.224510 0
M  V30 37 H 4.396040 2.818280 0.330280 0
M  V30 38 H 0.643450 2.581680 1.711090 0
M  V30 39 H -0.223810 2.876060 0.174210 0
M  V30 40 H 0.850160 4.129880 0.869390 0
M  V30 41 H 2.788350 2.715010 -1.898730 0
M  V30 42 H 2.807280 4.202300 -0.906900 0
M  V30 43 H 1.301610 3.651150 -1.684760 0
M  V30 44 H -2.543480 2.985600 1.943400 0
M  V30 45 H -1.461650 1.574920 1.956020 0
M  V30 46 H -2.971310 1.563710 2.917430 0
M  V30 47 H -2.066670 -0.824320 -2.746670 0
M  V30 48 H -3.814360 -1.126470 -2.558530 0
M  V30 49 H -2.655060 -1.750380 -1.354700 0
M  V30 50 H -5.072920 1.814150 1.662850 0
M  V30 51 H -5.161010 1.162590 0.016250 0
M  V30 52 H -4.637400 2.849660 0.285620 0
M  V30 53 H -4.552770 1.426890 -2.291250 0
M  V30 54 H -3.245550 2.405170 -1.559280 0
M  V30 55 H -2.929420 1.445800 -3.014350 0
M  V30 56 H 0.755170 -3.690860 0.522030 0
M  V30 57 H 1.266910 -3.624270 2.230910 0
M  V30 58 H 2.147830 -2.711840 0.974080 0
M  V30 59 O -0.166730 0.886950 -1.200920 0
M  V30 60 H -0.023000 0.556190 -2.106540 0
M  V30 61 Br 0.543530 -2.017550 -1.738410 0
M  V30 END ATOM
M  V30 BEGIN BOND
M  V30 1 1 55 18
M  V30 2 1 47 21
M  V30 3 1 48 21
M  V30 4 1 53 18
M  V30 5 1 60 59
M  V30 6 1 18 54
M  V30 7 1 18 17
M  V30 8 1 21 49
M  V30 9 1 21 17
M  V30 10 1 41 13
M  V30 11 1 61 1
M  V30 12 1 43 13
M  V30 13 1 32 31
M  V30 14 1 17 15
M  V30 15 1 36 14
M  V30 16 1 59 1
M  V30 17 1 13 42
M  V30 18 1 13 11
M  V30 19 1 34 31
M  V30 20 1 31 10
M  V30 21 1 31 33
M  V30 22 1 14 10
M  V30 23 1 14 35
M  V30 24 1 14 37
M  V30 25 1 10 9
M  V30 26 1 11 9
M  V30 27 1 11 12
M  V30 28 2 15 3
M  V30 29 1 15 16
M  V30 30 1 51 19
M  V30 31 1 39 12
M  V30 32 2 9 2
M  V30 33 1 52 19
M  V30 34 1 3 25
M  V30 35 1 56 6
M  V30 36 1 19 16
M  V30 37 1 19 50
M  V30 38 1 12 40
M  V30 39 1 12 38
M  V30 40 1 2 8
M  V30 41 1 16 20
M  V30 42 1 58 6
M  V30 43 1 22 5
M  V30 44 1 6 4
M  V30 45 1 6 57
M  V30 46 1 4 5
M  V30 47 1 4 7
M  V30 48 1 26 25
M  V30 49 1 25 5
M  V30 50 1 25 24
M  V30 51 1 5 23
M  V30 52 1 29 8
M  V30 53 1 44 20
M  V30 54 1 45 20
M  V30 55 1 20 46
M  V30 56 1 8 7
M  V30 57 1 8 30
M  V30 58 1 7 28
M  V30 59 1 7 27
M  V30 60 9 2 1
M  V30 61 9 3 1
M  V30 62 9 4 1
M  V30 END BOND
M  V30 END CTAB
M  END
