
     RDKit          3D

  0  0  0  0  0  0  0  0  0  0999 V3000
M  V30 BEGIN CTAB
M  V30 COUNTS 61 61 0 0 0
M  V30 BEGIN ATOM
M  V30 1 Fe 0.027660 0.550540 0.309670 0 CHG=2 VAL=4
M  V30 2 N 1.670470 0.123750 -0.587910 0
M  V30 3 N -1.694330 0.415200 -0.443440 0 RAD=2 VAL=2
M  V30 4 N 0.084440 2.368650 -0.812540 0
M  V30 5 C -1.265250 2.543710 -1.436800 0
M  V30 6 C 0.420790 3.611960 -0.058250 0
M  V30 7 C 1.138210 2.091960 -1.838420 0
M  V30 8 C 2.272120 1.339820 -1.161380 0
M  V30 9 C 2.458310 -0.960450 -0.296080 0
M  V30 10 N 3.765240 -0.820040 0.017340 0
M  V30 11 N 1.932790 -2.189120 -0.423340 0
M  V30 12 C 0.785460 -2.469660 -1.287380 0
M  V30 13 C 2.361200 -3.314170 0.418610 0
M  V30 14 C 4.786950 -1.775690 -0.438250 0
M  V30 15 C -2.714550 -0.385670 0.011640 0 RAD=2 VAL=3
M  V30 16 N -3.453730 -1.112910 -0.853460 0
M  V30 17 N -3.000280 -0.398670 1.320890 0
M  V30 18 C -3.504570 -1.598240 2.004120 0
M  V30 19 C -4.883350 -1.393460 -0.643450 0
M  V30 20 C -2.891600 -1.658030 -2.093320 0
M  V30 21 C -2.651930 0.708640 2.218620 0
M  V30 22 H -1.883040 3.090670 -0.720880 0
M  V30 23 H -1.187830 3.142730 -2.351960 0
M  V30 24 H -1.392900 0.670810 -2.527150 0
M  V30 25 C -1.882900 1.179750 -1.688010 0
M  V30 26 H -2.942870 1.281490 -1.940980 0
M  V30 27 H 1.482270 3.029000 -2.290620 0
M  V30 28 H 0.706820 1.464780 -2.622190 0
M  V30 29 H 2.746410 1.964270 -0.399770 0
M  V30 30 H 3.039770 1.052990 -1.888890 0
M  V30 31 C 4.265840 0.267130 0.871630 0
M  V30 32 H 4.905270 -0.173160 1.643260 0
M  V30 33 H 4.866470 0.973480 0.288510 0
M  V30 34 H 3.438290 0.779420 1.359900 0
M  V30 35 H 5.648240 -1.201890 -0.793260 0
M  V30 36 H 5.118190 -2.430210 0.374560 0
M  V30 37 H 4.398130 -2.378100 -1.259690 0
M  V30 38 H 0.652880 -1.653190 -1.996660 0
M  V30 39 H -0.114620 -2.575380 -0.676150 0
M  V30 40 H 0.977970 -3.399220 -1.831440 0
M  V30 41 H 2.966070 -2.954220 1.250960 0
M  V30 42 H 2.928010 -4.053580 -0.155500 0
M  V30 43 H 1.462920 -3.792510 0.820310 0
M  V30 44 H -3.178970 -2.711000 -2.175020 0
M  V30 45 H -1.804830 -1.594840 -2.069930 0
M  V30 46 H -3.275930 -1.124890 -2.969660 0
M  V30 47 H -1.753050 0.468520 2.793050 0
M  V30 48 H -3.487300 0.873790 2.904730 0
M  V30 49 H -2.474450 1.618440 1.645950 0
M  V30 50 H -5.405360 -1.210810 -1.587670 0
M  V30 51 H -5.289090 -0.723800 0.114820 0
M  V30 52 H -5.053720 -2.433020 -0.346710 0
M  V30 53 H -4.544730 -1.474740 2.319760 0
M  V30 54 H -3.413560 -2.468580 1.355590 0
M  V30 55 H -2.884410 -1.759990 2.890910 0
M  V30 56 H -0.257880 3.714600 0.788010 0
M  V30 57 H 0.324170 4.477440 -0.724180 0
M  V30 58 H 1.437320 3.559300 0.326700 0
M  V30 59 O -0.185000 -0.998200 1.152340 0
M  V30 60 H 0.306780 -0.975400 1.996100 0
M  V30 61 Cl 0.964640 1.456750 2.127200 0
M  V30 END ATOM
M  V30 BEGIN BOND
M  V30 1 1 46 20
M  V30 2 1 28 7
M  V30 3 1 24 25
M  V30 4 1 23 5
M  V30 5 1 27 7
M  V30 6 1 44 20
M  V30 7 1 20 45
M  V30 8 1 20 16
M  V30 9 1 38 12
M  V30 10 1 26 25
M  V30 11 1 30 8
M  V30 12 1 7 8
M  V30 13 1 7 4
M  V30 14 1 40 12
M  V30 15 1 25 5
M  V30 16 1 25 3
M  V30 17 1 50 19
M  V30 18 1 5 4
M  V30 19 1 5 22
M  V30 20 1 12 39
M  V30 21 1 12 11
M  V30 22 1 37 14
M  V30 23 1 8 2
M  V30 24 1 8 29
M  V30 25 1 16 19
M  V30 26 1 16 15
M  V30 27 1 4 6
M  V30 28 1 35 14
M  V30 29 1 57 6
M  V30 30 1 19 52
M  V30 31 1 19 51
M  V30 32 2 2 9
M  V30 33 1 3 15
M  V30 34 1 14 10
M  V30 35 1 14 36
M  V30 36 1 11 9
M  V30 37 1 11 13
M  V30 38 1 9 10
M  V30 39 1 42 13
M  V30 40 1 6 58
M  V30 41 1 6 56
M  V30 42 1 15 17
M  V30 43 1 10 31
M  V30 44 1 33 31
M  V30 45 1 1 59
M  V30 46 1 1 61
M  V30 47 1 13 43
M  V30 48 1 13 41
M  V30 49 1 31 34
M  V30 50 1 31 32
M  V30 51 1 59 60
M  V30 52 1 17 18
M  V30 53 1 17 21
M  V30 54 1 54 18
M  V30 55 1 49 21
M  V30 56 1 18 53
M  V30 57 1 18 55
M  V30 58 1 21 47
M  V30 59 1 21 48
M  V30 60 9 2 1
M  V30 61 9 4 1
M  V30 END BOND
M  V30 END CTAB
M  END
