
     RDKit          3D

  0  0  0  0  0  0  0  0  0  0999 V3000
M  V30 BEGIN CTAB
M  V30 COUNTS 44 48 0 0 0
M  V30 BEGIN ATOM
M  V30 1 Fe -0.013680 -0.084610 -0.547430 0 CHG=2 VAL=5
M  V30 2 N 0.492980 -1.192560 1.268630 0
M  V30 3 N -0.432360 1.513340 0.733010 0
M  V30 4 N 1.941230 0.141950 -0.564860 0
M  V30 5 N -1.990720 -0.175100 -0.569980 0
M  V30 6 C 0.540070 -0.147980 2.331220 0
M  V30 7 H 1.521390 0.331410 2.301120 0
M  V30 8 C -0.559670 0.881690 2.097780 0
M  V30 9 H -1.539570 0.402550 2.147670 0
M  V30 10 C -0.470410 -2.275310 1.584200 0
M  V30 11 H -0.136890 -2.860370 2.449810 0
M  V30 12 H -0.563990 -2.932130 0.716740 0
M  V30 13 H -1.448650 -1.842880 1.799960 0
M  V30 14 C 0.573500 2.615240 0.748990 0
M  V30 15 H 0.222960 3.432220 1.389300 0
M  V30 16 H 0.715620 2.991500 -0.265540 0
M  V30 17 H 1.525070 2.242790 1.124900 0
M  V30 18 C 1.841930 -1.736810 0.973250 0
M  V30 19 H 1.710740 -2.633890 0.357500 0
M  V30 20 H 2.363120 -2.038380 1.890620 0
M  V30 21 C 2.651320 -0.735480 0.183560 0
M  V30 22 C 4.042240 -0.733990 0.147710 0
M  V30 23 H 4.598330 -1.432840 0.764330 0
M  V30 24 C 4.701300 0.159210 -0.699940 0
M  V30 25 H 5.786000 0.166850 -0.746590 0
M  V30 26 C 3.953540 1.035710 -1.492930 0
M  V30 27 H 4.430350 1.732200 -2.173800 0
M  V30 28 C 2.570160 0.998590 -1.397890 0
M  V30 29 H 1.936890 1.646240 -1.995660 0
M  V30 30 C -1.762230 2.054340 0.294270 0
M  V30 31 H -1.587970 2.708710 -0.567610 0
M  V30 32 H -2.203040 2.666700 1.089340 0
M  V30 33 C -2.654810 0.914570 -0.113690 0
M  V30 34 C -4.042820 0.952540 -0.091830 0
M  V30 35 H -4.557040 1.830360 0.285770 0
M  V30 36 C -4.754680 -0.150700 -0.573330 0
M  V30 37 H -5.840320 -0.141770 -0.569620 0
M  V30 38 C -4.057860 -1.258530 -1.062200 0
M  V30 39 H -4.577730 -2.125640 -1.454710 0
M  V30 40 C -2.668510 -1.239110 -1.048560 0
M  V30 41 H -2.065970 -2.052590 -1.434020 0
M  V30 42 H 0.426190 -0.597630 3.324900 0
M  V30 43 H -0.528670 1.666230 2.861990 0
M  V30 44 F 0.074720 -1.219690 -1.823820 0
M  V30 END ATOM
M  V30 BEGIN BOND
M  V30 1 1 27 26
M  V30 2 1 29 28
M  V30 3 1 44 1
M  V30 4 1 26 28
M  V30 5 2 26 24
M  V30 6 1 39 38
M  V30 7 1 41 40
M  V30 8 2 28 4
M  V30 9 1 38 40
M  V30 10 2 38 36
M  V30 11 2 40 5
M  V30 12 1 25 24
M  V30 13 1 24 22
M  V30 14 1 36 37
M  V30 15 1 36 34
M  V30 16 1 5 33
M  V30 17 1 31 30
M  V30 18 1 4 21
M  V30 19 1 16 14
M  V30 20 2 33 34
M  V30 21 1 33 30
M  V30 22 1 34 35
M  V30 23 2 22 21
M  V30 24 1 22 23
M  V30 25 1 21 18
M  V30 26 1 30 3
M  V30 27 1 30 32
M  V30 28 1 19 18
M  V30 29 1 12 10
M  V30 30 1 3 14
M  V30 31 1 3 8
M  V30 32 1 14 17
M  V30 33 1 14 15
M  V30 34 1 18 2
M  V30 35 1 18 20
M  V30 36 1 2 10
M  V30 37 1 2 6
M  V30 38 1 10 13
M  V30 39 1 10 11
M  V30 40 1 8 9
M  V30 41 1 8 6
M  V30 42 1 8 43
M  V30 43 1 7 6
M  V30 44 1 6 42
M  V30 45 9 2 1
M  V30 46 9 3 1
M  V30 47 9 4 1
M  V30 48 9 5 1
M  V30 END BOND
M  V30 END CTAB
M  END
