
     RDKit          3D

  0  0  0  0  0  0  0  0  0  0999 V3000
M  V30 BEGIN CTAB
M  V30 COUNTS 46 50 0 0 0
M  V30 BEGIN ATOM
M  V30 1 Fe 0.105330 0.107010 -0.158510 0 CHG=2 VAL=5
M  V30 2 N -0.556300 -0.477380 1.783240 0
M  V30 3 N 0.718290 -2.049450 -0.365170 0
M  V30 4 N -1.925380 -0.368640 -0.596130 0
M  V30 5 N 2.201130 0.232780 -0.343110 0
M  V30 6 C -0.393720 -1.964910 1.868300 0
M  V30 7 H -1.299710 -2.426760 1.471350 0
M  V30 8 C 0.828620 -2.427100 1.079260 0
M  V30 9 H 1.730980 -1.954920 1.478500 0
M  V30 10 C 0.230020 0.224350 2.833050 0
M  V30 11 H -0.157660 -0.008570 3.831830 0
M  V30 12 H 0.176300 1.301040 2.660920 0
M  V30 13 H 1.274260 -0.089310 2.773060 0
M  V30 14 C -0.205180 -2.965640 -1.085500 0
M  V30 15 H 0.193870 -3.987430 -1.100980 0
M  V30 16 H -0.332070 -2.616680 -2.112360 0
M  V30 17 H -1.182090 -2.971380 -0.604330 0
M  V30 18 C -1.991830 -0.079990 1.824440 0
M  V30 19 H -2.024850 1.003860 1.978490 0
M  V30 20 H -2.498010 -0.551940 2.675430 0
M  V30 21 C -2.691080 -0.405290 0.519750 0
M  V30 22 C -4.057480 -0.662090 0.450730 0
M  V30 23 H -4.649530 -0.701260 1.359630 0
M  V30 24 C -4.649220 -0.857220 -0.799580 0
M  V30 25 H -5.714160 -1.054300 -0.875010 0
M  V30 26 C -3.856420 -0.796010 -1.948420 0
M  V30 27 H -4.280220 -0.936030 -2.936850 0
M  V30 28 C -2.495800 -0.554120 -1.802900 0
M  V30 29 H -1.833970 -0.503620 -2.662180 0
M  V30 30 C 2.055350 -2.096260 -1.014230 0
M  V30 31 H 1.898760 -2.095910 -2.099360 0
M  V30 32 H 2.579000 -3.029030 -0.767500 0
M  V30 33 C 2.889180 -0.892520 -0.649370 0
M  V30 34 C 4.279630 -0.909650 -0.682640 0
M  V30 35 H 4.804990 -1.828380 -0.923390 0
M  V30 36 C 4.979670 0.267860 -0.410900 0
M  V30 37 H 6.065060 0.276690 -0.435830 0
M  V30 38 C 4.266910 1.430440 -0.105370 0
M  V30 39 H 4.774010 2.364590 0.109880 0
M  V30 40 C 2.880500 1.373140 -0.078960 0
M  V30 41 H 2.275060 2.240950 0.152670 0
M  V30 42 H -0.303960 -2.270600 2.916980 0
M  V30 43 H 0.951980 -3.513230 1.181800 0
M  V30 44 N -0.232540 1.973350 -0.129030 0
M  V30 45 C -0.557460 3.133130 -0.214640 0
M  V30 46 S -0.980830 4.655400 -0.318640 0
M  V30 END ATOM
M  V30 BEGIN BOND
M  V30 1 1 27 26
M  V30 2 1 29 28
M  V30 3 1 16 14
M  V30 4 1 31 30
M  V30 5 1 26 28
M  V30 6 2 26 24
M  V30 7 2 28 4
M  V30 8 1 15 14
M  V30 9 1 14 17
M  V30 10 1 14 3
M  V30 11 1 30 32
M  V30 12 1 30 33
M  V30 13 1 30 3
M  V30 14 1 35 34
M  V30 15 1 25 24
M  V30 16 1 24 22
M  V30 17 1 34 33
M  V30 18 2 34 36
M  V30 19 2 33 5
M  V30 20 1 4 21
M  V30 21 1 37 36
M  V30 22 1 36 38
M  V30 23 1 3 8
M  V30 24 1 5 40
M  V30 25 2 46 45
M  V30 26 2 45 44
M  V30 27 1 1 44
M  V30 28 2 38 40
M  V30 29 1 38 39
M  V30 30 1 40 41
M  V30 31 2 22 21
M  V30 32 1 22 23
M  V30 33 1 21 18
M  V30 34 1 8 43
M  V30 35 1 8 9
M  V30 36 1 8 6
M  V30 37 1 7 6
M  V30 38 1 2 18
M  V30 39 1 2 6
M  V30 40 1 2 10
M  V30 41 1 18 19
M  V30 42 1 18 20
M  V30 43 1 6 42
M  V30 44 1 12 10
M  V30 45 1 13 10
M  V30 46 1 10 11
M  V30 47 9 2 1
M  V30 48 9 3 1
M  V30 49 9 4 1
M  V30 50 9 5 1
M  V30 END BOND
M  V30 END CTAB
M  END
