
     RDKit          3D

  0  0  0  0  0  0  0  0  0  0999 V3000
M  V30 BEGIN CTAB
M  V30 COUNTS 62 70 0 0 0
M  V30 BEGIN ATOM
M  V30 1 Fe 0.006690 -0.000090 -0.760770 0 CHG=2 VAL=6
M  V30 2 O 0.072910 -0.000070 -2.554080 0
M  V30 3 N -0.060680 -0.000200 1.294910 0
M  V30 4 N -1.506380 -1.352420 -0.742830 0
M  V30 5 N -1.506690 1.351940 -0.743220 0
M  V30 6 N 1.560060 1.299260 -0.709210 0
M  V30 7 N 1.560560 -1.298900 -0.709620 0
M  V30 8 C -3.788930 0.000010 1.945900 0
M  V30 9 H -4.692220 0.000400 1.332570 0
M  V30 10 H -3.819600 0.881740 2.588760 0
M  V30 11 H -3.820020 -0.882060 2.588280 0
M  V30 12 C -2.527390 -0.000040 1.061100 0
M  V30 13 C -1.257000 -0.000420 1.929440 0
M  V30 14 C -1.329820 -0.001050 3.321880 0
M  V30 15 H -2.280840 -0.001230 3.832840 0
M  V30 16 C -0.157530 -0.001480 4.067920 0
M  V30 17 H -0.196250 -0.002010 5.152790 0
M  V30 18 C 1.063170 -0.001180 3.406690 0
M  V30 19 H 1.977530 -0.001470 3.980980 0
M  V30 20 C 1.085690 -0.000500 2.011580 0
M  V30 21 C 2.401060 -0.000020 1.226580 0
M  V30 22 C 3.606900 0.000090 2.185420 0
M  V30 23 H 4.545030 0.000520 1.627130 0
M  V30 24 H 3.598790 -0.881810 2.829020 0
M  V30 25 H 3.598240 0.881640 2.829490 0
M  V30 26 C 2.458890 1.240570 0.300200 0
M  V30 27 C 3.457400 2.210340 0.409300 0
M  V30 28 H 4.161120 2.191950 1.229130 0
M  V30 29 C 3.577230 3.203120 -0.563880 0
M  V30 30 H 4.352470 3.958190 -0.478890 0
M  V30 31 C 2.725170 3.170270 -1.662610 0
M  V30 32 H 2.821570 3.871280 -2.484310 0
M  V30 33 C 1.735810 2.196270 -1.697110 0
M  V30 34 H 1.090610 2.073480 -2.553550 0
M  V30 35 C 2.459480 -1.240180 0.299690 0
M  V30 36 C 3.458580 -2.209410 0.408210 0
M  V30 37 H 4.162400 -2.190980 1.227950 0
M  V30 38 C 3.578850 -3.201680 -0.565430 0
M  V30 39 H 4.354540 -3.956340 -0.480900 0
M  V30 40 C 2.726630 -3.168800 -1.664040 0
M  V30 41 H 2.823330 -3.869380 -2.486070 0
M  V30 42 C 1.736720 -2.195350 -1.697980 0
M  V30 43 H 1.091390 -2.072450 -2.554320 0
M  V30 44 C -2.515470 1.248340 0.152180 0
M  V30 45 C -3.517030 2.220930 0.204930 0
M  V30 46 H -4.318680 2.151810 0.925770 0
M  V30 47 C -3.502180 3.293040 -0.686290 0
M  V30 48 H -4.280240 4.048760 -0.643460 0
M  V30 49 C -2.490100 3.357970 -1.638100 0
M  V30 50 H -2.446270 4.150530 -2.376900 0
M  V30 51 C -1.519430 2.366240 -1.630730 0
M  V30 52 H -0.733060 2.359580 -2.367030 0
M  V30 53 C -2.515750 -1.248200 0.151850 0
M  V30 54 C -3.517950 -2.220180 0.203870 0
M  V30 55 H -4.320190 -2.150450 0.923990 0
M  V30 56 C -3.502910 -3.292500 -0.687090 0
M  V30 57 H -4.281480 -4.047720 -0.644820 0
M  V30 58 C -2.489890 -3.358370 -1.637820 0
M  V30 59 H -2.445680 -4.151290 -2.376210 0
M  V30 60 C -1.518750 -2.367100 -1.629910 0
M  V30 61 H -0.731610 -2.361230 -2.365390 0
M  V30 62 H -0.825120 -0.000450 -2.928810 0
M  V30 END ATOM
M  V30 BEGIN BOND
M  V30 1 1 62 2
M  V30 2 1 43 42
M  V30 3 1 2 1
M  V30 4 1 34 33
M  V30 5 1 41 40
M  V30 6 1 32 31
M  V30 7 1 50 49
M  V30 8 1 59 58
M  V30 9 1 52 51
M  V30 10 1 61 60
M  V30 11 1 42 40
M  V30 12 2 42 7
M  V30 13 1 33 31
M  V30 14 2 33 6
M  V30 15 2 40 38
M  V30 16 2 31 29
M  V30 17 1 49 51
M  V30 18 2 49 47
M  V30 19 1 58 60
M  V30 20 2 58 56
M  V30 21 2 51 5
M  V30 22 2 60 4
M  V30 23 1 5 44
M  V30 24 1 4 53
M  V30 25 1 7 35
M  V30 26 1 6 26
M  V30 27 1 56 57
M  V30 28 1 56 54
M  V30 29 1 47 48
M  V30 30 1 47 45
M  V30 31 1 38 39
M  V30 32 1 38 36
M  V30 33 1 29 30
M  V30 34 1 29 27
M  V30 35 2 53 54
M  V30 36 1 53 12
M  V30 37 2 44 45
M  V30 38 1 44 12
M  V30 39 1 54 55
M  V30 40 1 45 46
M  V30 41 2 35 36
M  V30 42 1 35 21
M  V30 43 2 26 27
M  V30 44 1 26 21
M  V30 45 1 36 37
M  V30 46 1 27 28
M  V30 47 1 12 13
M  V30 48 1 12 8
M  V30 49 1 21 20
M  V30 50 1 21 22
M  V30 51 2 3 13
M  V30 52 1 3 20
M  V30 53 1 9 8
M  V30 54 1 23 22
M  V30 55 1 13 14
M  V30 56 1 8 11
M  V30 57 1 8 10
M  V30 58 2 20 18
M  V30 59 1 22 24
M  V30 60 1 22 25
M  V30 61 1 14 15
M  V30 62 2 14 16
M  V30 63 1 18 19
M  V30 64 1 18 16
M  V30 65 1 16 17
M  V30 66 9 3 1
M  V30 67 9 4 1
M  V30 68 9 5 1
M  V30 69 9 6 1
M  V30 70 9 7 1
M  V30 END BOND
M  V30 END CTAB
M  END
