
     RDKit          3D

  0  0  0  0  0  0  0  0  0  0999 V3000
M  V30 BEGIN CTAB
M  V30 COUNTS 63 70 0 0 0
M  V30 BEGIN ATOM
M  V30 1 Fe 1.215800 0.423600 0.395200 0 CHG=3 VAL=6
M  V30 2 N 0.150400 1.422400 1.936700 0
M  V30 3 N 1.088100 2.005400 -1.004300 0
M  V30 4 N 1.882400 -0.959600 -1.121900 0
M  V30 5 N 1.024400 -1.512300 1.333600 0
M  V30 6 N -1.083500 0.465900 -0.371800 0
M  V30 7 C 0.799200 1.740900 3.080300 0
M  V30 8 H 1.860500 1.518700 3.095100 0
M  V30 9 C 0.142100 2.320000 4.160000 0
M  V30 10 H 0.695000 2.568700 5.059600 0
M  V30 11 C -1.227700 2.572500 4.052600 0
M  V30 12 H -1.772500 3.020000 4.878600 0
M  V30 13 C -1.888900 2.258000 2.861000 0
M  V30 14 H -2.945900 2.477000 2.741800 0
M  V30 15 C -1.166000 1.696300 1.812600 0
M  V30 16 C -1.770000 1.510700 0.436300 0
M  V30 17 H -1.662800 2.463300 -0.093200 0
M  V30 18 H -2.849400 1.327700 0.502100 0
M  V30 19 C 2.028100 2.973900 -1.019500 0
M  V30 20 H 2.827400 2.864700 -0.294800 0
M  V30 21 C 1.965400 4.035500 -1.918100 0
M  V30 22 H 2.736700 4.798300 -1.907600 0
M  V30 23 C 0.897900 4.092200 -2.815700 0
M  V30 24 H 0.818100 4.909800 -3.525900 0
M  V30 25 C -0.078400 3.087300 -2.788200 0
M  V30 26 H -0.921400 3.114400 -3.471400 0
M  V30 27 C 0.050000 2.051900 -1.871200 0
M  V30 28 C -0.916300 0.888600 -1.787900 0
M  V30 29 H -1.872300 1.153700 -2.256100 0
M  V30 30 H -0.498900 0.033300 -2.332500 0
M  V30 31 C 2.356100 -0.577900 -2.323500 0
M  V30 32 H 2.197600 0.458900 -2.591900 0
M  V30 33 C 3.031300 -1.445800 -3.175400 0
M  V30 34 H 3.399800 -1.091000 -4.131900 0
M  V30 35 C 3.231800 -2.761800 -2.758400 0
M  V30 36 H 3.761900 -3.469100 -3.388700 0
M  V30 37 C 2.756400 -3.158300 -1.507600 0 RAD=2 VAL=3
M  V30 38 H 2.926900 -4.172900 -1.169100 0
M  V30 39 C 2.088900 -2.235400 -0.698800 0
M  V30 40 C 1.597900 -2.546300 0.663800 0
M  V30 41 C 1.722800 -3.803500 1.262100 0
M  V30 42 H 2.182800 -4.627600 0.731000 0
M  V30 43 C 1.265700 -3.995100 2.565900 0
M  V30 44 H 1.371200 -4.964700 3.042900 0
M  V30 45 C 0.684000 -2.924500 3.246800 0
M  V30 46 H 0.326800 -3.027600 4.265800 0
M  V30 47 C 0.585100 -1.701500 2.592500 0
M  V30 48 H 0.156600 -0.836400 3.083300 0
M  V30 49 C -1.680800 -0.883600 -0.217400 0
M  V30 50 H -1.666700 -1.122100 0.850600 0
M  V30 51 H -1.009300 -1.595500 -0.704600 0
M  V30 52 C -3.082700 -1.083300 -0.779700 0 RAD=2 VAL=3
M  V30 53 N -4.141400 -1.069600 0.080000 0
M  V30 54 H -3.958000 -0.948100 1.073800 0
M  V30 55 C -3.359000 -1.313000 -2.122100 0
M  V30 56 H -2.540500 -1.363300 -2.831200 0
M  V30 57 C -4.678400 -1.505700 -2.553400 0
M  V30 58 H -4.883000 -1.692000 -3.603800 0
M  V30 59 C -5.430500 -1.259200 -0.294600 0
M  V30 60 H -6.175900 -1.239400 0.493200 0
M  V30 61 C -5.728300 -1.474400 -1.630400 0
M  V30 62 H -6.758600 -1.628400 -1.933000 0
M  V30 63 F 2.780700 0.915300 1.038100 0
M  V30 END ATOM
M  V30 BEGIN BOND
M  V30 1 1 1 63
M  V30 2 1 1 5
M  V30 3 2 2 7
M  V30 4 1 4 39
M  V30 5 1 5 47
M  V30 6 1 6 49
M  V30 7 1 6 16
M  V30 8 1 7 8
M  V30 9 1 7 9
M  V30 10 1 9 10
M  V30 11 2 11 9
M  V30 12 1 11 12
M  V30 13 1 13 11
M  V30 14 1 14 13
M  V30 15 1 15 2
M  V30 16 2 15 13
M  V30 17 1 16 18
M  V30 18 1 16 15
M  V30 19 1 17 16
M  V30 20 2 19 3
M  V30 21 1 19 20
M  V30 22 1 21 22
M  V30 23 1 21 19
M  V30 24 1 23 25
M  V30 25 2 23 21
M  V30 26 1 24 23
M  V30 27 2 25 27
M  V30 28 1 26 25
M  V30 29 1 27 28
M  V30 30 1 27 3
M  V30 31 1 28 6
M  V30 32 1 29 28
M  V30 33 1 30 28
M  V30 34 2 31 4
M  V30 35 1 32 31
M  V30 36 2 33 35
M  V30 37 1 33 31
M  V30 38 1 34 33
M  V30 39 1 35 37
M  V30 40 1 36 35
M  V30 41 1 37 38
M  V30 42 1 37 39
M  V30 43 2 40 39 CFG=2
M  V30 44 1 40 41
M  V30 45 1 40 5
M  V30 46 2 41 43
M  V30 47 1 42 41
M  V30 48 1 43 44
M  V30 49 1 43 45
M  V30 50 1 45 46
M  V30 51 1 47 48
M  V30 52 2 47 45
M  V30 53 1 49 50
M  V30 54 1 51 49
M  V30 55 1 52 49
M  V30 56 1 52 53
M  V30 57 1 53 54
M  V30 58 1 55 52
M  V30 59 1 56 55
M  V30 60 2 57 55
M  V30 61 1 57 61
M  V30 62 1 58 57
M  V30 63 1 59 53
M  V30 64 1 59 60
M  V30 65 2 61 59
M  V30 66 1 62 61
M  V30 67 9 2 1
M  V30 68 9 3 1
M  V30 69 9 4 1
M  V30 70 9 6 1
M  V30 END BOND
M  V30 END CTAB
M  END
