
     RDKit          3D

  0  0  0  0  0  0  0  0  0  0999 V3000
M  V30 BEGIN CTAB
M  V30 COUNTS 65 71 0 0 0
M  V30 BEGIN ATOM
M  V30 1 Fe -0.977200 -0.287200 0.098600 0 CHG=3 VAL=5
M  V30 2 N -0.290500 -1.575200 1.682500 0 RAD=2 VAL=2
M  V30 3 N -0.765000 -1.733600 -1.481100 0
M  V30 4 N -1.123100 1.353500 -1.341300 0
M  V30 5 N -0.666100 1.533600 1.280600 0
M  V30 6 N 1.411000 -0.562400 -0.295200 0
M  V30 7 C -1.109700 -1.892600 2.709100 0 RAD=2 VAL=3
M  V30 8 H -2.125000 -1.520600 2.632500 0
M  V30 9 C -0.684400 -2.644600 3.798600 0
M  V30 10 H -1.378300 -2.882100 4.597900 0
M  V30 11 C 0.641900 -3.080200 3.831300 0
M  V30 12 H 1.010800 -3.667400 4.666900 0
M  V30 13 C 1.486900 -2.759800 2.765400 0
M  V30 14 H 2.514900 -3.109900 2.752000 0
M  V30 15 C 0.985900 -2.016700 1.699000 0
M  V30 16 C 1.801000 -1.790900 0.443400 0
M  V30 17 H 1.620400 -2.645500 -0.216600 0
M  V30 18 H 2.875500 -1.810400 0.665600 0
M  V30 19 C -1.760400 -2.584500 -1.803300 0
M  V30 20 H -2.661900 -2.504100 -1.207000 0
M  V30 21 C -1.642100 -3.506600 -2.839500 0
M  V30 22 H -2.466700 -4.173500 -3.067900 0
M  V30 23 C -0.449300 -3.550600 -3.562300 0
M  V30 24 H -0.321100 -4.259300 -4.374900 0
M  V30 25 C 0.587900 -2.675600 -3.219700 0
M  V30 26 H 1.530700 -2.696700 -3.757400 0
M  V30 27 C 0.395400 -1.776900 -2.176400 0
M  V30 28 C 1.449600 -0.770300 -1.763800 0
M  V30 29 H 2.437700 -1.099000 -2.111000 0
M  V30 30 H 1.232000 0.196300 -2.232700 0
M  V30 31 C -1.424800 1.173600 -2.640400 0
M  V30 32 H -1.405500 0.150500 -2.995800 0
M  V30 33 C -1.762200 2.222900 -3.489600 0
M  V30 34 H -2.002000 2.026300 -4.529000 0
M  V30 35 C -1.796000 3.514600 -2.964100 0
M  V30 36 H -2.061100 4.361800 -3.589000 0
M  V30 37 C -1.499900 3.705300 -1.614300 0
M  V30 38 H -1.544900 4.702900 -1.195200 0
M  V30 39 C -1.171700 2.605000 -0.816200 0
M  V30 40 C -0.896000 2.706900 0.637800 0
M  V30 41 C -0.889500 3.919700 1.335100 0
M  V30 42 H -1.072500 4.856200 0.822800 0
M  V30 43 C -0.658200 3.923700 2.710200 0
M  V30 44 H -0.663100 4.859200 3.261200 0
M  V30 45 C -0.431100 2.711500 3.363000 0
M  V30 46 H -0.258800 2.667200 4.433000 0
M  V30 47 C -0.443900 1.543300 2.607400 0
M  V30 48 H -0.283500 0.576800 3.069900 0
M  V30 49 C 2.136800 0.647400 0.154700 0
M  V30 50 H 1.958300 0.752000 1.229400 0
M  V30 51 H 1.665800 1.509200 -0.324900 0
M  V30 52 C 3.631900 0.696400 -0.132800 0 RAD=2 VAL=3
M  V30 53 N 4.502100 0.396100 0.873000 0
M  V30 54 H 4.122200 0.171900 1.790200 0
M  V30 55 C 4.179400 1.055400 -1.358800 0
M  V30 56 H 3.518700 1.330200 -2.173300 0
M  V30 57 C 5.568900 1.088200 -1.534100 0
M  V30 58 H 5.987200 1.377300 -2.493900 0
M  V30 59 C 5.851900 0.422600 0.747500 0
M  V30 60 H 6.429500 0.176200 1.631800 0
M  V30 61 C 6.416800 0.764100 -0.470000 0
M  V30 62 H 7.496400 0.788200 -0.573500 0
M  V30 63 N -2.820600 -0.449000 0.398800 0
M  V30 64 C -4.023200 -0.386400 0.529400 0
M  V30 65 S -5.589800 -0.312200 0.701400 0
M  V30 END ATOM
M  V30 BEGIN BOND
M  V30 1 1 1 63
M  V30 2 1 1 5
M  V30 3 1 2 15
M  V30 4 1 2 7
M  V30 5 1 4 39
M  V30 6 1 4 1
M  V30 7 1 5 47
M  V30 8 1 6 28
M  V30 9 1 6 49
M  V30 10 1 6 16
M  V30 11 1 7 9
M  V30 12 1 8 7
M  V30 13 2 9 11
M  V30 14 1 9 10
M  V30 15 1 11 12
M  V30 16 1 13 11
M  V30 17 1 14 13
M  V30 18 2 15 13
M  V30 19 1 16 18
M  V30 20 1 16 15
M  V30 21 1 17 16
M  V30 22 2 19 3
M  V30 23 1 19 20
M  V30 24 1 21 19
M  V30 25 1 22 21
M  V30 26 1 23 25
M  V30 27 2 23 21
M  V30 28 1 24 23
M  V30 29 2 25 27
M  V30 30 1 26 25
M  V30 31 1 27 28
M  V30 32 1 27 3
M  V30 33 1 29 28
M  V30 34 1 30 28
M  V30 35 1 31 4
M  V30 36 1 32 31
M  V30 37 1 33 35
M  V30 38 2 33 31
M  V30 39 1 34 33
M  V30 40 2 35 37
M  V30 41 1 36 35
M  V30 42 1 37 38
M  V30 43 1 37 39
M  V30 44 2 40 39
M  V30 45 1 40 5
M  V30 46 1 40 41
M  V30 47 2 41 43
M  V30 48 1 42 41
M  V30 49 1 43 44
M  V30 50 1 43 45
M  V30 51 1 45 46
M  V30 52 1 47 48
M  V30 53 2 47 45
M  V30 54 1 49 50
M  V30 55 1 51 49
M  V30 56 1 52 49
M  V30 57 1 52 53
M  V30 58 1 53 54
M  V30 59 1 55 52
M  V30 60 1 56 55
M  V30 61 2 57 55
M  V30 62 1 57 61
M  V30 63 1 58 57
M  V30 64 1 59 53
M  V30 65 1 59 60
M  V30 66 2 61 59
M  V30 67 1 62 61
M  V30 68 2 63 64
M  V30 69 2 64 65
M  V30 70 9 3 1
M  V30 71 9 6 1
M  V30 END BOND
M  V30 END CTAB
M  END
