
     RDKit          3D

  0  0  0  0  0  0  0  0  0  0999 V3000
M  V30 BEGIN CTAB
M  V30 COUNTS 62 70 0 0 0
M  V30 BEGIN ATOM
M  V30 1 Fe -0.435100 -0.692400 -0.763800 0 CHG=2 VAL=6
M  V30 2 N -2.584500 -0.539400 0.014300 0
M  V30 3 N 0.307700 0.493200 0.927000 0
M  V30 4 N 1.802700 -1.340100 -0.590900 0
M  V30 5 N -0.556700 -2.178700 0.695000 0
M  V30 6 C -1.894100 -2.811200 0.529000 0
M  V30 7 C -2.976400 -1.760100 0.383500 0
M  V30 8 C -4.327700 -2.099600 0.591200 0
M  V30 9 C -5.295500 -1.131600 0.398000 0
M  V30 10 C -4.910100 0.178100 0.031300 0
M  V30 11 C -5.844900 1.229500 -0.171800 0 RAD=2 VAL=3
M  V30 12 C -5.411600 2.506500 -0.509900 0
M  V30 13 C -4.037300 2.772000 -0.647300 0
M  V30 14 C -3.097400 1.765000 -0.460400 0
M  V30 15 C -3.516700 0.445400 -0.138800 0
M  V30 16 C -0.448500 -1.544000 2.038000 0
M  V30 17 C 0.335700 -0.259200 2.035900 0
M  V30 18 C 0.999000 0.120400 3.217500 0
M  V30 19 C 1.660600 1.326900 3.259700 0
M  V30 20 C 1.651600 2.160200 2.121100 0
M  V30 21 C 2.313500 3.417000 2.112900 0
M  V30 22 C 2.286300 4.223100 0.991100 0
M  V30 23 C 1.588300 3.792900 -0.154600 0
M  V30 24 C 0.935300 2.570100 -0.180900 0
M  V30 25 C 0.952400 1.715900 0.949600 0
M  V30 26 C 0.545500 -3.141400 0.422700 0
M  V30 27 C 1.862200 -2.436700 0.168600 0
M  V30 28 C 3.073300 -2.957500 0.661700 0
M  V30 29 C 4.256300 -2.305800 0.357800 0
M  V30 30 C 4.225100 -1.146000 -0.447800 0
M  V30 31 C 5.393400 -0.425600 -0.815700 0
M  V30 32 C 5.304900 0.700200 -1.626900 0
M  V30 33 C 4.053800 1.131600 -2.104500 0
M  V30 34 C 2.889600 0.454600 -1.759300 0
M  V30 35 C 2.953200 -0.692400 -0.919600 0
M  V30 36 H -2.105500 -3.480100 1.373200 0
M  V30 37 H -1.866100 -3.408500 -0.385000 0
M  V30 38 H -4.595600 -3.108800 0.887100 0
M  V30 39 H -6.347100 -1.365800 0.538300 0
M  V30 40 H -6.905500 1.019800 -0.065300 0
M  V30 41 H -6.135500 3.300100 -0.663600 0
M  V30 42 H -3.705700 3.773700 -0.901300 0
M  V30 43 H -2.038500 1.966200 -0.547400 0
M  V30 44 H -0.025000 -2.258400 2.752800 0
M  V30 45 H -1.459300 -1.308000 2.383800 0
M  V30 46 H 0.981700 -0.540300 4.077700 0
M  V30 47 H 2.186800 1.642300 4.156500 0
M  V30 48 H 2.836800 3.735100 3.010200 0
M  V30 49 H 2.789700 5.184400 0.994900 0
M  V30 50 H 1.551000 4.429900 -1.033200 0
M  V30 51 H 0.391900 2.262800 -1.061100 0
M  V30 52 H 0.275000 -3.679700 -0.489900 0
M  V30 53 H 0.630800 -3.865400 1.241500 0
M  V30 54 H 3.071800 -3.855900 1.270200 0
M  V30 55 H 5.205300 -2.679200 0.732600 0
M  V30 56 H 6.360900 -0.774800 -0.465900 0
M  V30 57 H 6.206000 1.236900 -1.905600 0
M  V30 58 H 3.995700 1.995000 -2.759700 0
M  V30 59 H 1.925100 0.756100 -2.147200 0
M  V30 60 O -0.802800 -2.017000 -1.885800 0
M  V30 61 H -0.914900 -1.712800 -2.804900 0
M  V30 62 Cl -0.616300 0.766900 -2.503200 0
M  V30 END ATOM
M  V30 BEGIN BOND
M  V30 1 1 1 2
M  V30 2 1 2 7
M  V30 3 2 3 25
M  V30 4 1 3 17
M  V30 5 2 4 27
M  V30 6 1 5 26
M  V30 7 1 5 16
M  V30 8 1 6 5
M  V30 9 1 6 36
M  V30 10 1 7 6
M  V30 11 2 7 8
M  V30 12 1 8 38
M  V30 13 1 9 39
M  V30 14 1 9 8
M  V30 15 2 10 9
M  V30 16 1 11 40
M  V30 17 1 11 10
M  V30 18 1 12 11
M  V30 19 2 13 12
M  V30 20 1 13 14
M  V30 21 2 14 15
M  V30 22 1 15 2
M  V30 23 1 15 10
M  V30 24 1 16 45
M  V30 25 1 16 44
M  V30 26 1 17 16
M  V30 27 2 17 18
M  V30 28 1 18 19
M  V30 29 1 18 46
M  V30 30 1 19 47
M  V30 31 2 20 19
M  V30 32 1 21 20
M  V30 33 1 21 48
M  V30 34 1 22 49
M  V30 35 2 22 21
M  V30 36 1 23 22
M  V30 37 2 24 23
M  V30 38 1 25 24
M  V30 39 1 25 20
M  V30 40 1 26 53
M  V30 41 1 27 26
M  V30 42 1 27 28
M  V30 43 1 28 54
M  V30 44 2 29 28
M  V30 45 1 29 55
M  V30 46 1 30 29
M  V30 47 1 31 56
M  V30 48 2 31 30
M  V30 49 1 32 31
M  V30 50 1 33 34
M  V30 51 2 33 32
M  V30 52 2 34 35
M  V30 53 1 35 4
M  V30 54 1 35 30
M  V30 55 1 37 6
M  V30 56 1 41 12
M  V30 57 1 42 13
M  V30 58 1 43 14
M  V30 59 1 50 23
M  V30 60 1 51 24
M  V30 61 1 52 26
M  V30 62 1 57 32
M  V30 63 1 58 33
M  V30 64 1 59 34
M  V30 65 1 60 1
M  V30 66 1 61 60
M  V30 67 1 62 1
M  V30 68 9 3 1
M  V30 69 9 4 1
M  V30 70 9 5 1
M  V30 END BOND
M  V30 END CTAB
M  END
