
     RDKit          3D

  0  0  0  0  0  0  0  0  0  0999 V3000
M  V30 BEGIN CTAB
M  V30 COUNTS 64 72 0 0 0
M  V30 BEGIN ATOM
M  V30 1 Fe -0.421800 -0.502600 -0.886400 0 CHG=2 VAL=6
M  V30 2 N -2.423400 -0.822400 0.056800 0
M  V30 3 N 0.472900 -0.124500 1.281200 0
M  V30 4 N 1.775400 -1.038300 -1.027500 0
M  V30 5 N -0.364900 -2.518800 -0.022600 0
M  V30 6 C -1.690200 -3.092000 -0.368900 0
M  V30 7 C -2.782500 -2.105600 -0.025800 0
M  V30 8 C -4.106700 -2.543900 0.166700 0
M  V30 9 C -5.084400 -1.610800 0.439000 0
M  V30 10 C -4.734300 -0.247600 0.579900 0
M  V30 11 C -5.684500 0.754800 0.909100 0
M  V30 12 C -5.288100 2.066800 1.087000 0
M  V30 13 C -3.925800 2.415900 0.957800 0
M  V30 14 C -2.978200 1.465800 0.623900 0
M  V30 15 C -3.361500 0.119200 0.404900 0
M  V30 16 C -0.167200 -2.471500 1.448300 0
M  V30 17 C 0.645700 -1.284600 1.919800 0
M  V30 18 C 1.492400 -1.429400 3.037500 0
M  V30 19 C 2.196000 -0.335100 3.495500 0
M  V30 20 C 2.040000 0.910500 2.846800 0
M  V30 21 C 2.727200 2.080300 3.265400 0
M  V30 22 C 2.537700 3.286200 2.608700 0
M  V30 23 C 1.648400 3.359000 1.519300 0
M  V30 24 C 0.953900 2.236200 1.091900 0
M  V30 25 C 1.144500 0.981200 1.732100 0 RAD=2 VAL=3
M  V30 26 C 0.742200 -3.208000 -0.730300 0
M  V30 27 C 1.977200 -2.338900 -0.799100 0
M  V30 28 C 3.262900 -2.899000 -0.676400 0
M  V30 29 C 4.367100 -2.076400 -0.781300 0
M  V30 30 C 4.188100 -0.696400 -1.023800 0
M  V30 31 C 5.277800 0.207600 -1.149000 0
M  V30 32 C 5.055400 1.550400 -1.404000 0
M  V30 33 C 3.738500 2.029300 -1.555300 0
M  V30 34 C 2.652100 1.176000 -1.433400 0
M  V30 35 C 2.851400 -0.202400 -1.157200 0
M  V30 36 H -1.853300 -4.051100 0.139800 0
M  V30 37 H -1.703700 -3.265400 -1.448100 0
M  V30 38 H -4.341500 -3.600300 0.087200 0
M  V30 39 H -6.119200 -1.915400 0.569100 0
M  V30 40 H -6.726500 0.471400 1.026000 0
M  V30 41 H -6.019500 2.827600 1.339400 0
M  V30 42 H -3.618900 3.443400 1.126800 0
M  V30 43 H -1.933400 1.728900 0.541300 0
M  V30 44 H 0.281400 -3.408700 1.799000 0
M  V30 45 H -1.152500 -2.393800 1.918200 0
M  V30 46 H 1.586600 -2.396000 3.521200 0
M  V30 47 H 2.865300 -0.421400 4.347100 0
M  V30 48 H 3.399200 2.017400 4.116700 0
M  V30 49 H 3.062800 4.175500 2.941800 0
M  V30 50 H 1.489900 4.308700 1.017500 0
M  V30 51 H 0.246700 2.299600 0.275900 0
M  V30 52 H 0.406700 -3.385800 -1.756200 0
M  V30 53 H 0.964700 -4.176300 -0.265300 0
M  V30 54 H 3.372000 -3.963500 -0.498000 0
M  V30 55 H 5.370500 -2.480400 -0.678200 0
M  V30 56 H 6.290000 -0.175100 -1.054000 0
M  V30 57 H 5.894700 2.230900 -1.504700 0
M  V30 58 H 3.571300 3.077900 -1.780800 0
M  V30 59 H 1.642200 1.535200 -1.578700 0
M  V30 60 O -0.827300 -1.328200 -2.462100 0
M  V30 61 H -0.959200 -0.812400 -3.275700 0
M  V30 62 N -0.634800 1.344900 -1.515800 0
M  V30 63 C -1.205600 2.162300 -2.187400 0
M  V30 64 S -1.946700 3.285900 -3.039900 0
M  V30 END ATOM
M  V30 BEGIN BOND
M  V30 1 1 1 3
M  V30 2 2 2 15
M  V30 3 1 3 25
M  V30 4 1 3 17
M  V30 5 2 4 27
M  V30 6 1 5 26
M  V30 7 1 5 16
M  V30 8 1 6 7
M  V30 9 1 6 5
M  V30 10 1 6 36
M  V30 11 1 7 2
M  V30 12 2 7 8
M  V30 13 1 8 9
M  V30 14 1 9 39
M  V30 15 2 9 10
M  V30 16 1 10 11
M  V30 17 1 11 40
M  V30 18 2 11 12
M  V30 19 1 12 41
M  V30 20 1 13 12
M  V30 21 1 13 42
M  V30 22 2 14 13
M  V30 23 1 15 10
M  V30 24 1 15 14
M  V30 25 1 16 44
M  V30 26 1 16 45
M  V30 27 1 16 17
M  V30 28 2 17 18
M  V30 29 1 18 19
M  V30 30 1 18 46
M  V30 31 1 19 47
M  V30 32 1 20 21
M  V30 33 2 20 19
M  V30 34 1 21 48
M  V30 35 1 22 49
M  V30 36 2 22 21
M  V30 37 1 23 22
M  V30 38 2 24 23
M  V30 39 1 25 24
M  V30 40 1 25 20
M  V30 41 1 26 53
M  V30 42 1 27 26
M  V30 43 1 27 28
M  V30 44 1 28 54
M  V30 45 1 29 55
M  V30 46 2 29 28
M  V30 47 1 30 29
M  V30 48 1 31 56
M  V30 49 2 31 30
M  V30 50 1 32 31
M  V30 51 1 33 34
M  V30 52 2 33 32
M  V30 53 2 34 35
M  V30 54 1 35 4
M  V30 55 1 35 30
M  V30 56 1 37 6
M  V30 57 1 38 8
M  V30 58 1 43 14
M  V30 59 1 50 23
M  V30 60 1 51 24
M  V30 61 1 52 26
M  V30 62 1 57 32
M  V30 63 1 58 33
M  V30 64 1 59 34
M  V30 65 1 60 1
M  V30 66 1 61 60
M  V30 67 1 62 1
M  V30 68 2 63 62
M  V30 69 2 64 63
M  V30 70 9 2 1
M  V30 71 9 4 1
M  V30 72 9 5 1
M  V30 END BOND
M  V30 END CTAB
M  END
