
     RDKit          3D

  0  0  0  0  0  0  0  0  0  0999 V3000
M  V30 BEGIN CTAB
M  V30 COUNTS 69 77 0 0 0
M  V30 BEGIN ATOM
M  V30 1 Fe -0.485600 -0.106600 -0.052700 0 CHG=2 VAL=6
M  V30 2 N 1.556000 0.834300 0.574800 0
M  V30 3 N 0.902100 -1.852000 0.547200 0
M  V30 4 N -2.375200 -1.052900 0.403100 0
M  V30 5 N -0.568900 -0.060700 2.169300 0
M  V30 6 O -0.317500 -0.176700 -1.870700 0
M  V30 7 O -0.025400 2.653800 -1.870700 0
M  V30 8 O -1.241600 1.700400 0.081700 0
M  V30 9 O 0.333600 3.588400 0.454800 0
M  V30 10 S -0.550500 2.963000 -0.529800 0 VAL=6
M  V30 11 F -2.894500 3.449800 -1.587000 0
M  V30 12 F -1.680400 5.222200 -1.209600 0
M  V30 13 F -2.643400 4.183900 0.451100 0
M  V30 14 C 0.296200 1.045000 2.639200 0
M  V30 15 C 1.599100 1.130600 1.880200 0
M  V30 16 C 2.765900 1.594300 2.512300 0
M  V30 17 C 3.919000 1.758200 1.765600 0
M  V30 18 C 3.895500 1.461900 0.385300 0
M  V30 19 C 5.031300 1.618400 -0.453200 0 RAD=2 VAL=3
M  V30 20 C 4.960700 1.336700 -1.820700 0
M  V30 21 C 3.754000 0.906600 -2.382700 0
M  V30 22 C 2.613700 0.746400 -1.589300 0
M  V30 23 C 2.669400 1.004600 -0.185700 0
M  V30 24 C -0.154900 -1.386100 2.689300 0
M  V30 25 C 0.946700 -2.025100 1.874300 0
M  V30 26 C 1.931800 -2.803400 2.511200 0
M  V30 27 C 2.913300 -3.404100 1.749000 0
M  V30 28 C 2.907300 -3.228400 0.347300 0
M  V30 29 C 3.893500 -3.805500 -0.496300 0
M  V30 30 C 3.857700 -3.608500 -1.870300 0
M  V30 31 C 2.829200 -2.838000 -2.439400 0
M  V30 32 C 1.840700 -2.262100 -1.645400 0
M  V30 33 C 1.863400 -2.438800 -0.231500 0
M  V30 34 C -2.002400 0.196000 2.457300 0
M  V30 35 C -2.873700 -0.684800 1.589800 0
M  V30 36 C -4.157500 -1.055600 2.025600 0
M  V30 37 C -4.946500 -1.828400 1.199300 0
M  V30 38 C -4.453600 -2.246400 -0.056600 0
M  V30 39 C -5.217600 -3.056800 -0.937800 0
M  V30 40 C -4.698700 -3.447200 -2.154600 0
M  V30 41 C -3.399800 -3.036300 -2.530700 0
M  V30 42 C -2.627000 -2.249400 -1.697200 0
M  V30 43 C -3.134700 -1.835900 -0.441800 0
M  V30 44 C -2.059500 4.044700 -0.739000 0
M  V30 45 H 0.474100 0.978800 3.719900 0
M  V30 46 H -0.224100 1.987000 2.436800 0
M  V30 47 H 2.749200 1.829100 3.571300 0
M  V30 48 H 4.833800 2.116800 2.229200 0
M  V30 49 H 5.961400 1.974300 -0.018300 0
M  V30 50 H 5.837300 1.474700 -2.445200 0
M  V30 51 H 3.687800 0.720700 -3.449900 0
M  V30 52 H 1.656200 0.491300 -2.022300 0
M  V30 53 H -1.024000 -2.051000 2.637100 0
M  V30 54 H 0.134600 -1.317400 3.745400 0
M  V30 55 H 1.913100 -2.918200 3.589900 0
M  V30 56 H 3.690100 -4.003300 2.216100 0
M  V30 57 H 4.676000 -4.412300 -0.049000 0
M  V30 58 H 4.614300 -4.060400 -2.503500 0
M  V30 59 H 2.789700 -2.702900 -3.515900 0
M  V30 60 H 1.025500 -1.701000 -2.086900 0
M  V30 61 H -2.207300 1.240100 2.206100 0
M  V30 62 H -2.230500 0.045300 3.520200 0
M  V30 63 H -4.509600 -0.731500 2.999300 0
M  V30 64 H -5.943400 -2.128400 1.510200 0
M  V30 65 H -6.216200 -3.359800 -0.636600 0
M  V30 66 H -5.286400 -4.064300 -2.826500 0
M  V30 67 H -3.003900 -3.339000 -3.495300 0
M  V30 68 H -1.647200 -1.909400 -2.007100 0
M  V30 69 H -0.516100 0.678100 -2.311000 0
M  V30 END ATOM
M  V30 BEGIN BOND
M  V30 1 1 1 8
M  V30 2 1 1 2
M  V30 3 1 2 15
M  V30 4 2 3 25
M  V30 5 2 4 35
M  V30 6 1 5 34
M  V30 7 1 5 14
M  V30 8 1 5 24
M  V30 9 1 6 1
M  V30 10 2 7 10
M  V30 11 1 10 8
M  V30 12 2 10 9
M  V30 13 1 11 44
M  V30 14 1 12 44
M  V30 15 1 14 45
M  V30 16 2 15 16
M  V30 17 1 15 14
M  V30 18 1 16 47
M  V30 19 1 17 48
M  V30 20 1 17 16
M  V30 21 2 18 17
M  V30 22 1 19 49
M  V30 23 1 19 18
M  V30 24 1 20 19
M  V30 25 2 21 20
M  V30 26 1 21 22
M  V30 27 2 22 23
M  V30 28 1 23 18
M  V30 29 1 23 2
M  V30 30 1 24 54
M  V30 31 1 25 26
M  V30 32 1 25 24
M  V30 33 1 26 55
M  V30 34 1 27 56
M  V30 35 2 27 26
M  V30 36 1 28 27
M  V30 37 1 29 57
M  V30 38 2 29 28
M  V30 39 1 30 29
M  V30 40 2 31 30
M  V30 41 1 31 32
M  V30 42 2 32 33
M  V30 43 1 33 28
M  V30 44 1 33 3
M  V30 45 1 34 62
M  V30 46 1 35 36
M  V30 47 1 35 34
M  V30 48 1 36 63
M  V30 49 1 37 64
M  V30 50 2 37 36
M  V30 51 1 38 37
M  V30 52 1 39 65
M  V30 53 2 39 38
M  V30 54 1 40 39
M  V30 55 2 41 40
M  V30 56 1 41 42
M  V30 57 2 42 43
M  V30 58 1 43 38
M  V30 59 1 43 4
M  V30 60 1 44 10
M  V30 61 1 44 13
M  V30 62 1 46 14
M  V30 63 1 50 20
M  V30 64 1 51 21
M  V30 65 1 52 22
M  V30 66 1 53 24
M  V30 67 1 58 30
M  V30 68 1 59 31
M  V30 69 1 60 32
M  V30 70 1 61 34
M  V30 71 1 66 40
M  V30 72 1 67 41
M  V30 73 1 68 42
M  V30 74 1 69 6
M  V30 75 9 3 1
M  V30 76 9 4 1
M  V30 77 9 5 1
M  V30 END BOND
M  V30 END CTAB
M  END
