
     RDKit          3D

  0  0  0  0  0  0  0  0  0  0999 V3000
M  V30 BEGIN CTAB
M  V30 COUNTS 64 72 0 0 0
M  V30 BEGIN ATOM
M  V30 1 Fe -0.351300 -0.557770 -0.032200 0 CHG=2 VAL=6
M  V30 2 N -2.330670 -0.131040 0.258790 0
M  V30 3 N 0.352920 1.205030 0.773300 0
M  V30 4 N 1.606430 -1.192930 0.248720 0
M  V30 5 N -0.580750 -1.143830 1.903250 0
M  V30 6 C -1.931020 -1.768320 1.986500 0
M  V30 7 C -2.887200 -0.921800 1.186340 0
M  V30 8 C -4.268290 -0.967030 1.433320 0
M  V30 9 C -5.102050 -0.166440 0.683240 0
M  V30 10 C -4.553820 0.729350 -0.260670 0
M  V30 11 C -5.370730 1.624960 -1.000100 0
M  V30 12 C -4.805250 2.534880 -1.864000 0
M  V30 13 C -3.399050 2.585100 -2.006840 0
M  V30 14 C -2.573340 1.718650 -1.318060 0
M  V30 15 C -3.127730 0.755520 -0.443220 0
M  V30 16 C -0.525010 0.083400 2.745730 0
M  V30 17 C 0.289700 1.176920 2.110980 0
M  V30 18 C 0.875670 2.143860 2.946370 0
M  V30 19 C 1.558990 3.192810 2.376570 0
M  V30 20 C 1.652480 3.274850 0.971900 0
M  V30 21 C 2.348450 4.343290 0.345780 0
M  V30 22 C 2.433120 4.420020 -1.027950 0
M  V30 23 C 1.816440 3.424930 -1.813950 0
M  V30 24 C 1.132840 2.367600 -1.238420 0
M  V30 25 C 1.031050 2.255520 0.170630 0
M  V30 26 C 0.514100 -2.101110 2.207120 0
M  V30 27 C 1.770920 -1.728410 1.466470 0
M  V30 28 C 3.028510 -2.015370 2.021660 0
M  V30 29 C 4.160830 -1.752630 1.280490 0
M  V30 30 C 4.033330 -1.235200 -0.025200 0
M  V30 31 C 5.169120 -0.985150 -0.841760 0
M  V30 32 C 5.018830 -0.519000 -2.131010 0
M  V30 33 C 3.723390 -0.295750 -2.645460 0
M  V30 34 C 2.594820 -0.511590 -1.874460 0
M  V30 35 C 2.718140 -0.970620 -0.540380 0
M  V30 36 H -2.257630 -1.860460 3.029720 0
M  V30 37 H -1.873450 -2.773830 1.565150 0
M  V30 38 H -4.655380 -1.626920 2.202610 0
M  V30 39 H -6.177700 -0.193350 0.833580 0
M  V30 40 H -6.446820 1.586000 -0.858350 0
M  V30 41 H -5.431220 3.222030 -2.423840 0
M  V30 42 H -2.957440 3.323920 -2.668810 0
M  V30 43 H -1.503500 1.768130 -1.437140 0
M  V30 44 H -0.153990 -0.158860 3.747420 0
M  V30 45 H -1.546760 0.457430 2.865000 0
M  V30 46 H 0.780430 2.050520 4.022990 0
M  V30 47 H 2.027240 3.954100 2.994210 0
M  V30 48 H 2.807780 5.101280 0.973700 0
M  V30 49 H 2.962590 5.240520 -1.501150 0
M  V30 50 H 1.872860 3.487760 -2.896630 0
M  V30 51 H 0.658210 1.623790 -1.857380 0
M  V30 52 H 0.198780 -3.088250 1.855160 0
M  V30 53 H 0.683770 -2.175550 3.286820 0
M  V30 54 H 3.091860 -2.436150 3.019420 0
M  V30 55 H 5.148500 -1.952230 1.686720 0
M  V30 56 H 6.156550 -1.179510 -0.433130 0
M  V30 57 H 5.889540 -0.338860 -2.753050 0
M  V30 58 H 3.606980 0.044130 -3.670130 0
M  V30 59 H 1.603190 -0.361120 -2.275950 0
M  V30 60 O -0.303190 -0.049840 -1.742670 0
M  V30 61 H -0.914610 -0.600680 -2.263840 0
M  V30 62 N -0.817590 -2.362330 -0.638940 0
M  V30 63 C -0.941000 -3.382240 -1.226560 0
M  V30 64 S -1.121280 -4.793980 -2.008180 0
M  V30 END ATOM
M  V30 BEGIN BOND
M  V30 1 1 58 33
M  V30 2 1 50 23
M  V30 3 1 57 32
M  V30 4 1 42 13
M  V30 5 1 33 32
M  V30 6 2 33 34
M  V30 7 1 41 12
M  V30 8 1 59 34
M  V30 9 1 61 60
M  V30 10 2 32 31
M  V30 11 2 64 63
M  V30 12 1 13 12
M  V30 13 2 13 14
M  V30 14 1 34 35
M  V30 15 2 12 11
M  V30 16 1 51 24
M  V30 17 2 23 24
M  V30 18 1 23 22
M  V30 19 1 60 1
M  V30 20 1 49 22
M  V30 21 1 43 14
M  V30 22 1 14 15
M  V30 23 1 24 25
M  V30 24 2 63 62
M  V30 25 2 22 21
M  V30 26 1 11 40
M  V30 27 1 11 10
M  V30 28 1 31 56
M  V30 29 1 31 30
M  V30 30 1 62 1
M  V30 31 1 35 30
M  V30 32 2 35 4
M  V30 33 1 15 10
M  V30 34 2 15 2
M  V30 35 2 10 9
M  V30 36 2 30 29
M  V30 37 2 25 3
M  V30 38 1 25 20
M  V30 39 1 4 27
M  V30 40 1 2 7
M  V30 41 1 21 20
M  V30 42 1 21 48
M  V30 43 1 9 39
M  V30 44 1 9 8
M  V30 45 1 3 17
M  V30 46 2 20 19
M  V30 47 2 7 8
M  V30 48 1 7 6
M  V30 49 1 29 55
M  V30 50 1 29 28
M  V30 51 1 8 38
M  V30 52 2 27 28
M  V30 53 1 27 26
M  V30 54 1 37 6
M  V30 55 1 52 26
M  V30 56 1 5 6
M  V30 57 1 5 26
M  V30 58 1 5 16
M  V30 59 1 6 36
M  V30 60 1 28 54
M  V30 61 1 17 16
M  V30 62 2 17 18
M  V30 63 1 26 53
M  V30 64 1 19 18
M  V30 65 1 19 47
M  V30 66 1 16 45
M  V30 67 1 16 44
M  V30 68 1 18 46
M  V30 69 9 2 1
M  V30 70 9 3 1
M  V30 71 9 4 1
M  V30 72 9 5 1
M  V30 END BOND
M  V30 END CTAB
M  END
