
     RDKit          3D

  0  0  0  0  0  0  0  0  0  0999 V3000
M  V30 BEGIN CTAB
M  V30 COUNTS 62 70 0 0 0
M  V30 BEGIN ATOM
M  V30 1 Fe -0.316800 -0.807900 -0.542700 0 CHG=2 VAL=6
M  V30 2 N -2.294200 -0.654100 -0.195100 0
M  V30 3 N 0.159800 0.502000 0.979200 0
M  V30 4 N 1.654200 -1.288300 -0.436300 0
M  V30 5 N -0.542700 -2.163900 0.935400 0
M  V30 6 C -1.815700 -2.870700 0.608300 0
M  V30 7 C -2.816100 -1.825200 0.204500 0
M  V30 8 C -4.194800 -2.066300 0.243300 0
M  V30 9 C -5.054600 -1.066300 -0.164100 0
M  V30 10 C -4.546100 0.196400 -0.536900 0
M  V30 11 C -5.403000 1.268600 -0.901300 0 RAD=2 VAL=3
M  V30 12 C -4.883300 2.506900 -1.204200 0
M  V30 13 C -3.487300 2.715900 -1.134300 0
M  V30 14 C -2.620000 1.693600 -0.795800 0
M  V30 15 C -3.123300 0.405200 -0.516400 0
M  V30 16 C -0.648100 -1.430600 2.228700 0
M  V30 17 C 0.020700 -0.083400 2.175900 0
M  V30 18 C 0.410700 0.517800 3.383500 0
M  V30 19 C 0.961800 1.778500 3.353700 0
M  V30 20 C 1.130900 2.438800 2.118800 0
M  V30 21 C 1.698600 3.738400 2.051900 0
M  V30 22 C 1.859600 4.370700 0.840800 0
M  V30 23 C 1.453600 3.715200 -0.342900 0
M  V30 24 C 0.902400 2.448200 -0.316300 0
M  V30 25 C 0.723000 1.771700 0.910900 0
M  V30 26 C 0.644900 -3.057900 0.859400 0
M  V30 27 C 1.859900 -2.274400 0.451200 0
M  V30 28 C 3.134800 -2.638700 0.904600 0
M  V30 29 C 4.233700 -1.967200 0.411000 0
M  V30 30 C 4.066700 -0.978000 -0.579200 0
M  V30 31 C 5.181200 -0.322200 -1.167100 0
M  V30 32 C 5.002600 0.582400 -2.187100 0
M  V30 33 C 3.697000 0.851000 -2.660400 0
M  V30 34 C 2.588400 0.254800 -2.094100 0
M  V30 35 C 2.735700 -0.658100 -1.028300 0
M  V30 36 H -2.163500 -3.462400 1.463100 0
M  V30 37 H -1.629100 -3.541200 -0.231800 0
M  V30 38 H -4.561700 -3.030400 0.578800 0
M  V30 39 H -6.128000 -1.233700 -0.173900 0
M  V30 40 H -6.474500 1.093300 -0.924400 0
M  V30 41 H -5.540300 3.325500 -1.479000 0
M  V30 42 H -3.085000 3.702900 -1.341300 0
M  V30 43 H -1.562100 1.883200 -0.727100 0
M  V30 44 H -0.241600 -2.040400 3.041900 0
M  V30 45 H -1.709200 -1.273300 2.446300 0
M  V30 46 H 0.271600 -0.016600 4.317300 0
M  V30 47 H 1.274400 2.268300 4.271700 0
M  V30 48 H 1.998400 4.221700 2.977100 0
M  V30 49 H 2.290800 5.365100 0.791700 0
M  V30 50 H 1.576400 4.215800 -1.298700 0
M  V30 51 H 0.597700 1.975400 -1.234700 0
M  V30 52 H 0.450600 -3.794700 0.074500 0
M  V30 53 H 0.791700 -3.593800 1.802300 0
M  V30 54 H 3.237400 -3.437800 1.630600 0
M  V30 55 H 5.232800 -2.210600 0.761400 0
M  V30 56 H 6.176400 -0.571300 -0.810500 0
M  V30 57 H 5.856400 1.070800 -2.645000 0
M  V30 58 H 3.562500 1.532800 -3.494700 0
M  V30 59 H 1.599100 0.454800 -2.477300 0
M  V30 60 O -0.346400 0.318600 -1.899000 0
M  V30 61 H -0.753500 -0.164800 -2.648700 0
M  V30 62 F -0.576000 -2.127000 -1.673300 0
M  V30 END ATOM
M  V30 BEGIN BOND
M  V30 1 1 1 2
M  V30 2 1 2 7
M  V30 3 2 3 17
M  V30 4 2 4 27
M  V30 5 1 5 16
M  V30 6 1 6 5
M  V30 7 1 6 36
M  V30 8 2 7 8
M  V30 9 1 7 6
M  V30 10 1 8 38
M  V30 11 1 9 8
M  V30 12 1 10 15
M  V30 13 2 10 9
M  V30 14 1 11 10
M  V30 15 2 12 13
M  V30 16 1 12 11
M  V30 17 1 13 14
M  V30 18 1 14 43
M  V30 19 2 14 15
M  V30 20 1 15 2
M  V30 21 1 16 45
M  V30 22 1 16 44
M  V30 23 1 17 16
M  V30 24 1 17 18
M  V30 25 1 18 46
M  V30 26 2 19 18
M  V30 27 1 19 47
M  V30 28 1 20 19
M  V30 29 2 21 20
M  V30 30 1 21 48
M  V30 31 1 22 21
M  V30 32 1 23 24
M  V30 33 2 23 22
M  V30 34 2 24 25
M  V30 35 1 25 3
M  V30 36 1 25 20
M  V30 37 1 26 5
M  V30 38 1 26 53
M  V30 39 1 27 26
M  V30 40 1 27 28
M  V30 41 1 28 54
M  V30 42 1 29 55
M  V30 43 2 29 28
M  V30 44 1 30 29
M  V30 45 1 31 56
M  V30 46 2 31 30
M  V30 47 1 32 31
M  V30 48 2 33 32
M  V30 49 1 33 34
M  V30 50 2 34 35
M  V30 51 1 35 30
M  V30 52 1 35 4
M  V30 53 1 37 6
M  V30 54 1 39 9
M  V30 55 1 40 11
M  V30 56 1 41 12
M  V30 57 1 42 13
M  V30 58 1 49 22
M  V30 59 1 50 23
M  V30 60 1 51 24
M  V30 61 1 52 26
M  V30 62 1 57 32
M  V30 63 1 58 33
M  V30 64 1 59 34
M  V30 65 1 60 1
M  V30 66 1 61 60
M  V30 67 1 62 1
M  V30 68 9 3 1
M  V30 69 9 4 1
M  V30 70 9 5 1
M  V30 END BOND
M  V30 END CTAB
M  END
