
     RDKit          3D

  0  0  0  0  0  0  0  0  0  0999 V3000
M  V30 BEGIN CTAB
M  V30 COUNTS 102 113 0 0 0
M  V30 BEGIN ATOM
M  V30 1 Fe 1.315200 0.572500 0.251400 0 CHG=3 VAL=5
M  V30 2 B -1.769800 -0.205700 -0.071500 0 CHG=-1 VAL=4
M  V30 3 H -2.907700 -0.467800 -0.195200 0
M  V30 4 O 2.661500 0.112300 -1.310300 0
M  V30 5 C 3.517100 -0.247400 -0.430000 0
M  V30 6 O 3.102000 -0.201200 0.793700 0
M  V30 7 N 0.422300 -1.384700 -0.260700 0
M  V30 8 N -0.891400 -1.329200 -0.613000 0
M  V30 9 C 2.214500 -3.105600 -0.402900 0
M  V30 10 C 2.946700 -3.793600 -1.396200 0 RAD=2 VAL=3
M  V30 11 H 2.548500 -3.855500 -2.404500 0
M  V30 12 C 4.179900 -4.353400 -1.090900 0
M  V30 13 H 4.753100 -4.858900 -1.861300 0
M  V30 14 C 4.682800 -4.267200 0.216000 0
M  V30 15 H 5.641800 -4.715800 0.455700 0
M  V30 16 C 3.948400 -3.612100 1.216000 0
M  V30 17 H 4.333400 -3.567200 2.229900 0
M  V30 18 C 2.729300 -3.025300 0.910300 0
M  V30 19 H 2.150400 -2.518700 1.673800 0
M  V30 20 C 0.892700 -2.573900 -0.708300 0
M  V30 21 C -0.140100 -3.263300 -1.383000 0
M  V30 22 H -0.076600 -4.242300 -1.834100 0
M  V30 23 C -1.269400 -2.464000 -1.286200 0
M  V30 24 C -2.648400 -2.730300 -1.718700 0
M  V30 25 C -3.220700 -3.982200 -1.435700 0
M  V30 26 H -2.634100 -4.736500 -0.918800 0
M  V30 27 C -4.543000 -4.246300 -1.793500 0
M  V30 28 H -4.977300 -5.216400 -1.571200 0
M  V30 29 C -5.304600 -3.265500 -2.434900 0
M  V30 30 H -6.334400 -3.472300 -2.710600 0
M  V30 31 C -4.736400 -2.023600 -2.732800 0
M  V30 32 H -5.320100 -1.260000 -3.237400 0
M  V30 33 C -3.414300 -1.759100 -2.384600 0
M  V30 34 H -2.972700 -0.800700 -2.637600 0
M  V30 35 N -0.249400 1.496500 -1.155100 0
M  V30 36 N -1.486300 1.121900 -0.863400 0
M  V30 37 C 0.771000 3.402600 -2.417100 0
M  V30 38 C 0.555100 4.741900 -2.865600 0
M  V30 39 H -0.432000 5.184200 -2.794500 0
M  V30 40 C 1.606100 5.495900 -3.342000 0
M  V30 41 H 1.442200 6.519700 -3.661900 0
M  V30 42 C 2.901700 4.937000 -3.407700 0
M  V30 43 H 3.724600 5.534600 -3.788800 0
M  V30 44 C 3.129600 3.617500 -2.986000 0
M  V30 45 H 4.125500 3.191200 -3.048100 0
M  V30 46 C 2.087000 2.857200 -2.489000 0
M  V30 47 H 2.263600 1.835700 -2.184800 0
M  V30 48 C -0.346900 2.646700 -1.933700 0
M  V30 49 C -1.715000 2.934000 -2.134500 0
M  V30 50 H -2.136900 3.743900 -2.708600 0
M  V30 51 C -2.429500 1.971400 -1.459700 0
M  V30 52 C -3.875900 1.774300 -1.410900 0
M  V30 53 C -4.555600 1.481000 -0.213600 0
M  V30 54 H -4.010300 1.417400 0.719800 0
M  V30 55 C -5.934200 1.304400 -0.216700 0
M  V30 56 H -6.444500 1.076100 0.713200 0
M  V30 57 C -6.654400 1.422000 -1.411300 0
M  V30 58 H -7.730600 1.277700 -1.412300 0
M  V30 59 C -5.991400 1.734700 -2.604000 0
M  V30 60 H -6.550400 1.833400 -3.529400 0
M  V30 61 C -4.611700 1.915800 -2.606100 0
M  V30 62 H -4.091700 2.135200 -3.534000 0
M  V30 63 N -0.212200 0.446500 1.794700 0 RAD=2 VAL=2
M  V30 64 N -1.422800 -0.009400 1.424700 0
M  V30 65 C 0.828700 1.225800 3.925800 0
M  V30 66 C 0.543700 2.040300 5.053800 0
M  V30 67 H -0.484400 2.305600 5.277300 0
M  V30 68 C 1.571600 2.535500 5.836400 0
M  V30 69 H 1.350300 3.174400 6.685100 0
M  V30 70 C 2.906600 2.216000 5.525900 0
M  V30 71 H 3.710900 2.604000 6.143600 0
M  V30 72 C 3.201200 1.396400 4.426000 0
M  V30 73 H 4.231300 1.143700 4.196700 0
M  V30 74 C 2.178300 0.905200 3.631200 0
M  V30 75 C -0.276100 0.724400 3.137600 0 RAD=2 VAL=3
M  V30 76 C -1.572400 0.420000 3.600500 0
M  V30 77 H -1.917400 0.453300 4.622600 0
M  V30 78 C -2.273300 -0.081200 2.516700 0
M  V30 79 C -3.634500 -0.612900 2.469500 0
M  V30 80 C -4.641000 0.025800 3.222200 0
M  V30 81 H -4.397800 0.912600 3.800300 0
M  V30 82 C -5.946400 -0.457700 3.200400 0
M  V30 83 H -6.716800 0.041700 3.779800 0
M  V30 84 C -6.263500 -1.583300 2.430300 0
M  V30 85 H -7.282900 -1.956900 2.412000 0
M  V30 86 C -5.266700 -2.233500 1.693300 0
M  V30 87 H -5.505000 -3.111200 1.100700 0
M  V30 88 C -3.959700 -1.760300 1.718600 0
M  V30 89 H -3.190300 -2.289400 1.167700 0
M  V30 90 H 2.416700 0.250800 2.804500 0
M  V30 91 C 4.861200 -0.700400 -0.773800 0
M  V30 92 C 5.789600 -0.982400 0.241600 0
M  V30 93 C 5.208300 -0.879400 -2.123900 0
M  V30 94 C 7.060500 -1.441000 -0.095000 0
M  V30 95 H 5.503500 -0.839000 1.277700 0
M  V30 96 C 6.478100 -1.344000 -2.453000 0
M  V30 97 H 4.475300 -0.663400 -2.894100 0
M  V30 98 C 7.402600 -1.623900 -1.439900 0
M  V30 99 H 7.785500 -1.654000 0.684400 0
M  V30 100 H 6.751500 -1.488300 -3.493700 0
M  V30 101 H 8.394400 -1.982400 -1.699400 0
M  V30 102 Cl 1.890200 2.685100 0.805500 0
M  V30 END ATOM
M  V30 BEGIN BOND
M  V30 1 1 1 6
M  V30 2 1 1 102
M  V30 3 1 2 3
M  V30 4 1 2 64
M  V30 5 2 4 5
M  V30 6 1 5 6
M  V30 7 1 7 8
M  V30 8 1 7 1
M  V30 9 1 8 2
M  V30 10 1 9 18
M  V30 11 1 10 12
M  V30 12 1 10 9
M  V30 13 1 11 10
M  V30 14 2 12 14
M  V30 15 1 13 12
M  V30 16 1 14 15
M  V30 17 1 14 16
M  V30 18 1 16 17
M  V30 19 2 18 16
M  V30 20 1 18 19
M  V30 21 2 20 9 CFG=2
M  V30 22 1 20 7
M  V30 23 2 21 23
M  V30 24 1 21 20
M  V30 25 1 22 21
M  V30 26 1 23 8
M  V30 27 2 24 25
M  V30 28 1 24 23
M  V30 29 1 25 26
M  V30 30 1 27 28
M  V30 31 1 27 25
M  V30 32 2 29 27
M  V30 33 1 30 29
M  V30 34 1 31 29
M  V30 35 2 31 33
M  V30 36 1 32 31
M  V30 37 1 33 24
M  V30 38 1 34 33
M  V30 39 1 35 36
M  V30 40 1 36 2
M  V30 41 1 38 39
M  V30 42 2 38 37
M  V30 43 1 40 38
M  V30 44 1 41 40
M  V30 45 2 42 40
M  V30 46 1 42 44
M  V30 47 1 43 42
M  V30 48 2 44 46
M  V30 49 1 45 44
M  V30 50 1 46 37
M  V30 51 1 46 47
M  V30 52 1 48 37
M  V30 53 2 48 35
M  V30 54 1 49 48
M  V30 55 2 49 51
M  V30 56 1 50 49
M  V30 57 1 51 52
M  V30 58 1 51 36
M  V30 59 2 52 53
M  V30 60 1 53 54
M  V30 61 1 55 53
M  V30 62 1 55 56
M  V30 63 2 57 55
M  V30 64 1 58 57
M  V30 65 1 59 57
M  V30 66 1 60 59
M  V30 67 2 61 59
M  V30 68 1 61 52
M  V30 69 1 62 61
M  V30 70 1 63 64
M  V30 71 1 63 75
M  V30 72 1 64 78
M  V30 73 2 65 66
M  V30 74 1 66 67
M  V30 75 1 66 68
M  V30 76 1 68 69
M  V30 77 2 70 68
M  V30 78 1 70 71
M  V30 79 1 72 70
M  V30 80 1 73 72
M  V30 81 1 74 65
M  V30 82 2 74 72
M  V30 83 1 75 76
M  V30 84 1 75 65
M  V30 85 1 76 77
M  V30 86 2 78 76
M  V30 87 1 79 78
M  V30 88 2 79 80
M  V30 89 1 80 81
M  V30 90 1 82 80
M  V30 91 1 82 83
M  V30 92 2 84 82
M  V30 93 1 85 84
M  V30 94 2 86 88
M  V30 95 1 86 84
M  V30 96 1 87 86
M  V30 97 1 88 79
M  V30 98 1 89 88
M  V30 99 1 90 74
M  V30 100 1 91 5
M  V30 101 2 91 92
M  V30 102 1 92 95
M  V30 103 1 93 91
M  V30 104 1 94 92
M  V30 105 1 94 99
M  V30 106 2 96 93
M  V30 107 1 96 98
M  V30 108 1 97 93
M  V30 109 2 98 94
M  V30 110 1 100 96
M  V30 111 1 101 98
M  V30 112 9 4 1
M  V30 113 9 35 1
M  V30 END BOND
M  V30 END CTAB
M  END
