
     RDKit          3D

  0  0  0  0  0  0  0  0  0  0999 V3000
M  V30 BEGIN CTAB
M  V30 COUNTS 63 68 0 0 0
M  V30 BEGIN ATOM
M  V30 1 Fe 0.125260 0.096640 0.096320 0 CHG=2 VAL=6
M  V30 2 N -0.276290 -1.829750 -0.930230 0
M  V30 3 N -0.263530 0.986810 -1.925180 0
M  V30 4 N 0.568890 2.131830 1.034090 0
M  V30 5 N 0.505090 -0.624660 2.130470 0
M  V30 6 C 0.214550 -1.497210 -2.306290 0
M  V30 7 C -0.418370 -0.207870 -2.831120 0
M  V30 8 C 0.976480 1.771790 -2.258670 0
M  V30 9 C 1.300800 2.943470 -1.312110 0
M  V30 10 C 1.674220 2.673860 0.157740 0
M  V30 11 C 1.088430 1.808900 2.414930 0
M  V30 12 C 1.531310 0.358330 2.607630 0
M  V30 13 C 1.100790 -2.004340 2.087640 0
M  V30 14 C 0.350410 -3.034140 1.227480 0
M  V30 15 C 0.529240 -2.925570 -0.296390 0
M  V30 16 C -1.716240 -2.198330 -0.948850 0
M  V30 17 C -1.461430 1.847620 -2.125080 0
M  V30 18 C -0.458950 3.199280 1.189440 0
M  V30 19 C -0.685150 -0.615190 3.017470 0
M  V30 20 H -0.021610 -2.314740 -3.000680 0
M  V30 21 H 1.297480 -1.406910 -2.261050 0
M  V30 22 H -1.490750 -0.364890 -2.968810 0
M  V30 23 H -0.004230 0.019150 -3.821040 0
M  V30 24 H 0.854940 2.182160 -3.270800 0
M  V30 25 H 1.808100 1.069360 -2.286210 0
M  V30 26 H 2.183640 3.427300 -1.747580 0
M  V30 27 H 0.516540 3.704190 -1.368700 0
M  V30 28 H 2.508440 1.978710 0.215870 0
M  V30 29 H 2.005570 3.625130 0.596250 0
M  V30 30 H 1.927490 2.470540 2.661440 0
M  V30 31 H 0.292560 2.041980 3.123930 0
M  V30 32 H 1.739380 0.195400 3.673810 0
M  V30 33 H 2.450230 0.166000 2.057890 0
M  V30 34 H 1.158820 -2.375810 3.119070 0
M  V30 35 H 2.123540 -1.909210 1.720460 0
M  V30 36 H -0.711470 -3.066670 1.497790 0
M  V30 37 H 0.747690 -4.014390 1.514770 0
M  V30 38 H 1.578240 -2.747110 -0.532320 0
M  V30 39 H 0.249960 -3.876850 -0.767940 0
M  V30 40 H -2.020810 -2.487600 -1.961520 0
M  V30 41 H -1.863120 -3.090690 -0.332590 0
M  V30 42 H -1.529640 2.167390 -3.172700 0
M  V30 43 H -1.405580 2.734920 -1.499920 0
M  V30 44 H -2.363570 1.296870 -1.862650 0
M  V30 45 H 0.008170 4.134400 1.523770 0
M  V30 46 H -1.192030 2.909360 1.941540 0
M  V30 47 H -0.975840 3.384520 0.250960 0
M  V30 48 H -0.401660 -0.867010 4.047060 0
M  V30 49 H -1.417810 -1.337370 2.659230 0
M  V30 50 C -2.631080 -1.122730 -0.419050 0
M  V30 51 C -2.905040 0.806980 0.829700 0
M  V30 52 C -4.011970 -1.231260 -0.600430 0
M  V30 53 C -4.285540 0.760280 0.709040 0
M  V30 54 H -2.429110 1.602060 1.381970 0
M  V30 55 C -4.854260 -0.279590 -0.032220 0
M  V30 56 H -4.415640 -2.060560 -1.173560 0
M  V30 57 H -4.897400 1.522300 1.179430 0
M  V30 58 H -5.930130 -0.347970 -0.160210 0
M  V30 59 H -1.153810 0.368510 3.008880 0
M  V30 60 N -2.077720 -0.106560 0.274730 0
M  V30 61 N 1.983540 -0.221750 -0.277440 0
M  V30 62 C 3.118440 -0.570800 -0.492420 0
M  V30 63 S 4.606050 -1.031090 -0.771620 0
M  V30 END ATOM
M  V30 BEGIN BOND
M  V30 1 1 23 7
M  V30 2 1 24 8
M  V30 3 1 42 17
M  V30 4 1 20 6
M  V30 5 1 22 7
M  V30 6 1 7 6
M  V30 7 1 7 3
M  V30 8 1 6 21
M  V30 9 1 6 2
M  V30 10 1 25 8
M  V30 11 1 8 3
M  V30 12 1 8 9
M  V30 13 1 17 3
M  V30 14 1 17 44
M  V30 15 1 17 43
M  V30 16 1 40 16
M  V30 17 1 26 9
M  V30 18 1 27 9
M  V30 19 1 9 10
M  V30 20 1 56 52
M  V30 21 1 16 2
M  V30 22 1 16 50
M  V30 23 1 16 41
M  V30 24 1 2 15
M  V30 25 2 63 62
M  V30 26 1 39 15
M  V30 27 2 52 50
M  V30 28 1 52 55
M  V30 29 1 38 15
M  V30 30 2 62 61
M  V30 31 1 50 60
M  V30 32 1 15 14
M  V30 33 1 61 1
M  V30 34 1 58 55
M  V30 35 2 55 53
M  V30 36 1 10 28
M  V30 37 1 10 29
M  V30 38 1 10 4
M  V30 39 1 47 18
M  V30 40 2 60 51
M  V30 41 1 53 51
M  V30 42 1 53 57
M  V30 43 1 51 54
M  V30 44 1 4 18
M  V30 45 1 4 11
M  V30 46 1 18 45
M  V30 47 1 18 46
M  V30 48 1 14 36
M  V30 49 1 14 37
M  V30 50 1 14 13
M  V30 51 1 35 13
M  V30 52 1 33 12
M  V30 53 1 13 5
M  V30 54 1 13 34
M  V30 55 1 5 12
M  V30 56 1 5 19
M  V30 57 1 11 12
M  V30 58 1 11 30
M  V30 59 1 11 31
M  V30 60 1 12 32
M  V30 61 1 49 19
M  V30 62 1 59 19
M  V30 63 1 19 48
M  V30 64 9 2 1
M  V30 65 9 3 1
M  V30 66 9 4 1
M  V30 67 9 5 1
M  V30 68 9 60 1
M  V30 END BOND
M  V30 END CTAB
M  END
