
     RDKit          3D

  0  0  0  0  0  0  0  0  0  0999 V3000
M  V30 BEGIN CTAB
M  V30 COUNTS 61 66 0 0 0
M  V30 BEGIN ATOM
M  V30 1 Fe 0.237750 0.005410 0.063950 0 CHG=2 VAL=6
M  V30 2 N -0.642360 -1.595500 -1.205320 0
M  V30 3 N -0.195980 1.298350 -1.708080 0
M  V30 4 N 1.151010 1.695710 1.263150 0
M  V30 5 N 0.638410 -1.131600 1.882710 0
M  V30 6 C -0.238130 -1.128250 -2.574500 0
M  V30 7 C -0.617370 0.338930 -2.801790 0
M  V30 8 C 1.085300 2.017630 -2.057620 0
M  V30 9 C 1.653530 2.934930 -0.957780 0
M  V30 10 C 2.184800 2.336080 0.357680 0
M  V30 11 C 1.803500 1.038680 2.466930 0
M  V30 12 C 1.886240 -0.493260 2.420920 0
M  V30 13 C 0.890540 -2.586960 1.576080 0
M  V30 14 C -0.131830 -3.264980 0.649240 0
M  V30 15 C -0.049460 -2.934110 -0.851470 0
M  V30 16 C -2.127920 -1.684280 -1.111480 0
M  V30 17 C -1.281370 2.314750 -1.574290 0
M  V30 18 C 0.278870 2.789070 1.783590 0
M  V30 19 C -0.458970 -1.014790 2.879800 0
M  V30 20 H -0.734610 -1.739380 -3.339660 0
M  V30 21 H 0.832850 -1.276150 -2.677850 0
M  V30 22 H -1.703220 0.418140 -2.888180 0
M  V30 23 H -0.200530 0.668270 -3.760030 0
M  V30 24 H 0.884910 2.639050 -2.940750 0
M  V30 25 H 1.817130 1.264820 -2.342050 0
M  V30 26 H 2.522920 3.421960 -1.416230 0
M  V30 27 H 0.958930 3.754400 -0.749550 0
M  V30 28 H 2.950050 1.591870 0.155910 0
M  V30 29 H 2.654250 3.148560 0.927820 0
M  V30 30 H 2.815560 1.435890 2.595700 0
M  V30 31 H 1.236860 1.344250 3.347480 0
M  V30 32 H 2.076060 -0.859350 3.438470 0
M  V30 33 H 2.714710 -0.810850 1.794590 0
M  V30 34 H 0.912190 -3.124290 2.532690 0
M  V30 35 H 1.883840 -2.661830 1.133870 0
M  V30 36 H -1.150980 -3.123360 1.028270 0
M  V30 37 H 0.056670 -4.341210 0.735930 0
M  V30 38 H 0.988410 -2.940820 -1.180370 0
M  V30 39 H -0.581350 -3.702840 -1.426440 0
M  V30 40 H -2.562580 -1.717510 -2.116640 0
M  V30 41 H -2.397400 -2.636610 -0.645290 0
M  V30 42 H -1.372010 2.888170 -2.504950 0
M  V30 43 H -1.062600 3.005770 -0.764740 0
M  V30 44 H -2.231870 1.828850 -1.366570 0
M  V30 45 H 0.893320 3.586840 2.218560 0
M  V30 46 H -0.371630 2.409170 2.569700 0
M  V30 47 H -0.331820 3.214420 0.990940 0
M  V30 48 H -0.170860 -1.502900 3.818560 0
M  V30 49 H -1.364600 -1.479940 2.494620 0
M  V30 50 C -2.771010 -0.589840 -0.306750 0
M  V30 51 C -2.581470 1.069120 1.291840 0
M  V30 52 C -4.156900 -0.417670 -0.357990 0
M  V30 53 C -3.950320 1.288450 1.312310 0
M  V30 54 H -1.931790 1.644430 1.930200 0
M  V30 55 C -4.760060 0.534190 0.458560 0
M  V30 56 H -4.750230 -1.034890 -1.025980 0
M  V30 57 H -4.368210 2.035850 1.978000 0
M  V30 58 H -5.835310 0.681930 0.434750 0
M  V30 59 H -0.672600 0.034740 3.079960 0
M  V30 60 N -1.983200 0.155410 0.494680 0
M  V30 61 Br 2.534030 -0.755680 -0.812370 0
M  V30 END ATOM
M  V30 BEGIN BOND
M  V30 1 1 23 7
M  V30 2 1 20 6
M  V30 3 1 24 8
M  V30 4 1 22 7
M  V30 5 1 7 6
M  V30 6 1 7 3
M  V30 7 1 21 6
M  V30 8 1 6 2
M  V30 9 1 42 17
M  V30 10 1 25 8
M  V30 11 1 40 16
M  V30 12 1 8 3
M  V30 13 1 8 9
M  V30 14 1 3 17
M  V30 15 1 17 44
M  V30 16 1 17 43
M  V30 17 1 39 15
M  V30 18 1 26 9
M  V30 19 1 2 16
M  V30 20 1 2 15
M  V30 21 1 38 15
M  V30 22 1 16 41
M  V30 23 1 16 50
M  V30 24 1 56 52
M  V30 25 1 9 27
M  V30 26 1 9 10
M  V30 27 1 15 14
M  V30 28 1 61 1
M  V30 29 2 52 50
M  V30 30 1 52 55
M  V30 31 1 50 60
M  V30 32 1 28 10
M  V30 33 1 10 29
M  V30 34 1 10 4
M  V30 35 1 58 55
M  V30 36 2 55 53
M  V30 37 2 60 51
M  V30 38 1 14 37
M  V30 39 1 14 36
M  V30 40 1 14 13
M  V30 41 1 47 18
M  V30 42 1 35 13
M  V30 43 1 4 18
M  V30 44 1 4 11
M  V30 45 1 51 53
M  V30 46 1 51 54
M  V30 47 1 53 57
M  V30 48 1 13 5
M  V30 49 1 13 34
M  V30 50 1 18 45
M  V30 51 1 18 46
M  V30 52 1 33 12
M  V30 53 1 5 12
M  V30 54 1 5 19
M  V30 55 1 12 11
M  V30 56 1 12 32
M  V30 57 1 11 30
M  V30 58 1 11 31
M  V30 59 1 49 19
M  V30 60 1 19 59
M  V30 61 1 19 48
M  V30 62 9 2 1
M  V30 63 9 3 1
M  V30 64 9 4 1
M  V30 65 9 5 1
M  V30 66 9 60 1
M  V30 END BOND
M  V30 END CTAB
M  END
