
     RDKit          3D

  0  0  0  0  0  0  0  0  0  0999 V3000
M  V30 BEGIN CTAB
M  V30 COUNTS 53 59 0 0 0
M  V30 BEGIN ATOM
M  V30 1 N 1.145570 -0.353220 1.759730 0
M  V30 2 Fe -0.215850 -0.212210 0.050550 0 CHG=2 VAL=6
M  V30 3 N 1.607130 -0.880190 -0.899850 0
M  V30 4 N -2.020770 0.343760 -0.906650 0
M  V30 5 N -1.457120 0.671300 1.730610 0
M  V30 6 C 0.276640 -0.740760 2.912330 0
M  V30 7 C -0.934280 0.198480 3.055910 0
M  V30 8 C 1.841560 0.953100 1.958380 0
M  V30 9 C -1.512670 2.160390 1.696510 0
M  V30 10 N 0.822310 1.677150 -0.150540 0
M  V30 11 C 1.813230 1.863650 0.744790 0
M  V30 12 C 2.722930 2.911120 0.611070 0
M  V30 13 C 2.595780 3.788910 -0.466740 0
M  V30 14 C 1.558050 3.597520 -1.382430 0
M  V30 15 C 0.696210 2.525100 -1.188010 0
M  V30 16 C -3.093240 0.364650 -0.079740 0
M  V30 17 C -4.381970 0.527940 -0.577550 0
M  V30 18 C -4.569710 0.649900 -1.956050 0
M  V30 19 C -3.459800 0.611920 -2.803790 0
M  V30 20 C -2.201600 0.456060 -2.237140 0
M  V30 21 C 1.868670 -0.847930 -2.216810 0
M  V30 22 C 3.085290 -1.271920 -2.739350 0
M  V30 23 C 4.064680 -1.730870 -1.855940 0
M  V30 24 C 3.791270 -1.756300 -0.486570 0
M  V30 25 C 2.543580 -1.331180 -0.039020 0
M  V30 26 C 2.111720 -1.435110 1.404970 0
M  V30 27 C -2.806130 0.138160 1.389020 0
M  V30 28 H 0.850520 -0.755010 3.847840 0
M  V30 29 H -0.066680 -1.755140 2.709620 0
M  V30 30 H -1.718020 -0.324920 3.611660 0
M  V30 31 H -0.673930 1.078780 3.647830 0
M  V30 32 H 2.876280 0.780710 2.273590 0
M  V30 33 H 1.358690 1.479250 2.787430 0
M  V30 34 H -2.237880 2.528120 2.432750 0
M  V30 35 H -1.807000 2.495550 0.701990 0
M  V30 36 H -0.533940 2.578810 1.922930 0
M  V30 37 H 3.514660 3.041060 1.342570 0
M  V30 38 H 3.295020 4.610430 -0.588340 0
M  V30 39 H 1.420460 4.261530 -2.228840 0
M  V30 40 H -0.128050 2.329880 -1.866050 0
M  V30 41 H -5.226160 0.552260 0.103970 0
M  V30 42 H -5.568890 0.771900 -2.362530 0
M  V30 43 H -3.565280 0.697300 -3.879680 0
M  V30 44 H -1.307360 0.405250 -2.851180 0
M  V30 45 H 1.074960 -0.477700 -2.858520 0
M  V30 46 H 3.257630 -1.241270 -3.809610 0
M  V30 47 H 5.028420 -2.065190 -2.227180 0
M  V30 48 H 4.530910 -2.112320 0.223500 0
M  V30 49 H 1.596600 -2.391920 1.533120 0
M  V30 50 H 2.972440 -1.424150 2.083690 0
M  V30 51 H -3.577980 0.604120 2.014530 0
M  V30 52 H -2.810090 -0.938430 1.584720 0
M  V30 53 Br -0.962410 -2.549150 0.095420 0
M  V30 END ATOM
M  V30 BEGIN BOND
M  V30 1 1 43 19
M  V30 2 1 46 22
M  V30 3 1 45 21
M  V30 4 1 44 20
M  V30 5 1 19 20
M  V30 6 2 19 18
M  V30 7 1 22 21
M  V30 8 2 22 23
M  V30 9 1 42 18
M  V30 10 2 20 4
M  V30 11 1 39 14
M  V30 12 1 47 23
M  V30 13 2 21 3
M  V30 14 1 18 17
M  V30 15 1 40 15
M  V30 16 1 23 24
M  V30 17 1 14 15
M  V30 18 2 14 13
M  V30 19 2 15 10
M  V30 20 1 4 16
M  V30 21 1 3 25
M  V30 22 1 38 13
M  V30 23 2 17 16
M  V30 24 1 17 41
M  V30 25 2 24 25
M  V30 26 1 24 48
M  V30 27 1 13 12
M  V30 28 1 10 11
M  V30 29 1 16 27
M  V30 30 1 25 26
M  V30 31 1 2 53
M  V30 32 2 12 11
M  V30 33 1 12 37
M  V30 34 1 35 9
M  V30 35 1 11 8
M  V30 36 1 27 52
M  V30 37 1 27 5
M  V30 38 1 27 51
M  V30 39 1 26 49
M  V30 40 1 26 1
M  V30 41 1 26 50
M  V30 42 1 9 5
M  V30 43 1 9 36
M  V30 44 1 9 34
M  V30 45 1 5 7
M  V30 46 1 1 8
M  V30 47 1 1 6
M  V30 48 1 8 32
M  V30 49 1 8 33
M  V30 50 1 29 6
M  V30 51 1 6 7
M  V30 52 1 6 28
M  V30 53 1 7 30
M  V30 54 1 7 31
M  V30 55 9 1 2
M  V30 56 9 3 2
M  V30 57 9 4 2
M  V30 58 9 5 2
M  V30 59 9 10 2
M  V30 END BOND
M  V30 END CTAB
M  END
