
     RDKit          3D

  0  0  0  0  0  0  0  0  0  0999 V3000
M  V30 BEGIN CTAB
M  V30 COUNTS 53 59 0 0 0
M  V30 BEGIN ATOM
M  V30 1 N 1.233920 -0.805120 -1.531730 0
M  V30 2 Fe -0.168340 0.067940 -0.413850 0 CHG=2 VAL=6
M  V30 3 N 1.297410 1.400300 -0.084690 0
M  V30 4 N -1.896140 0.766140 0.378930 0
M  V30 5 N -1.409160 -1.491870 -0.893650 0
M  V30 6 C 0.432570 -1.502670 -2.595960 0
M  V30 7 C -0.702720 -2.295640 -1.954570 0
M  V30 8 C 2.061570 -1.729520 -0.687790 0
M  V30 9 C -1.822510 -2.404810 0.213180 0
M  V30 10 N 0.586240 -0.959780 1.107760 0
M  V30 11 C 1.643500 -1.727620 0.768100 0
M  V30 12 C 2.314460 -2.492130 1.721370 0
M  V30 13 C 1.890700 -2.446610 3.049310 0
M  V30 14 C 0.799850 -1.640890 3.391410 0
M  V30 15 C 0.170270 -0.916100 2.389700 0
M  V30 16 C -2.950020 0.296790 -0.338890 0
M  V30 17 C -4.242350 0.763890 -0.129320 0
M  V30 18 C -4.464560 1.752050 0.831380 0
M  V30 19 C -3.382260 2.228680 1.570600 0
M  V30 20 C -2.118900 1.709170 1.310950 0
M  V30 21 C 1.404080 2.293550 0.912770 0
M  V30 22 C 2.476290 3.172540 1.014880 0
M  V30 23 C 3.484940 3.112730 0.052560 0
M  V30 24 C 3.389080 2.166970 -0.969870 0
M  V30 25 C 2.280970 1.328100 -1.013440 0
M  V30 26 C 2.048450 0.313590 -2.099310 0
M  V30 27 C -2.622570 -0.758330 -1.371520 0
M  V30 28 H 1.072020 -2.160870 -3.195720 0
M  V30 29 H 0.030600 -0.721140 -3.237930 0
M  V30 30 H -1.411440 -2.631620 -2.718970 0
M  V30 31 H -0.311170 -3.191330 -1.466620 0
M  V30 32 H 3.113940 -1.437150 -0.758230 0
M  V30 33 H 1.999870 -2.746210 -1.090130 0
M  V30 34 H -2.530100 -3.149040 -0.169140 0
M  V30 35 H -2.300240 -1.829430 1.005830 0
M  V30 36 H -0.952430 -2.916610 0.620770 0
M  V30 37 H 3.157080 -3.109950 1.426220 0
M  V30 38 H 2.402990 -3.031760 3.806750 0
M  V30 39 H 0.440570 -1.580150 4.412860 0
M  V30 40 H -0.692860 -0.292020 2.587590 0
M  V30 41 H -5.062880 0.358560 -0.712590 0
M  V30 42 H -5.465370 2.135280 1.003810 0
M  V30 43 H -3.506540 2.990110 2.332640 0
M  V30 44 H -1.256970 2.057300 1.864840 0
M  V30 45 H 0.613800 2.292330 1.650440 0
M  V30 46 H 2.515790 3.882290 1.833790 0
M  V30 47 H 4.337360 3.782970 0.102080 0
M  V30 48 H 4.161200 2.082120 -1.727760 0
M  V30 49 H 1.457290 0.780770 -2.888800 0
M  V30 50 H 2.983100 -0.057520 -2.532780 0
M  V30 51 H -3.457100 -1.454340 -1.513690 0
M  V30 52 H -2.390510 -0.279150 -2.322700 0
M  V30 53 F -0.644650 0.972220 -1.864670 0
M  V30 END ATOM
M  V30 BEGIN BOND
M  V30 1 1 29 6
M  V30 2 1 28 6
M  V30 3 1 49 26
M  V30 4 1 30 7
M  V30 5 1 6 7
M  V30 6 1 6 1
M  V30 7 1 50 26
M  V30 8 1 52 27
M  V30 9 1 26 1
M  V30 10 1 26 25
M  V30 11 1 7 31
M  V30 12 1 7 5
M  V30 13 1 53 2
M  V30 14 1 48 24
M  V30 15 1 1 8
M  V30 16 1 51 27
M  V30 17 1 27 5
M  V30 18 1 27 16
M  V30 19 1 33 8
M  V30 20 1 25 24
M  V30 21 2 25 3
M  V30 22 2 24 23
M  V30 23 1 5 9
M  V30 24 1 32 8
M  V30 25 1 41 17
M  V30 26 1 8 11
M  V30 27 1 16 17
M  V30 28 2 16 4
M  V30 29 1 34 9
M  V30 30 2 17 18
M  V30 31 1 3 21
M  V30 32 1 23 47
M  V30 33 1 23 22
M  V30 34 1 9 36
M  V30 35 1 9 35
M  V30 36 1 4 20
M  V30 37 2 11 10
M  V30 38 1 11 12
M  V30 39 1 18 42
M  V30 40 1 18 19
M  V30 41 2 21 22
M  V30 42 1 21 45
M  V30 43 1 22 46
M  V30 44 1 10 15
M  V30 45 2 20 19
M  V30 46 1 20 44
M  V30 47 1 37 12
M  V30 48 1 19 43
M  V30 49 2 12 13
M  V30 50 1 15 40
M  V30 51 2 15 14
M  V30 52 1 13 14
M  V30 53 1 13 38
M  V30 54 1 14 39
M  V30 55 9 1 2
M  V30 56 9 3 2
M  V30 57 9 4 2
M  V30 58 9 5 2
M  V30 59 9 10 2
M  V30 END BOND
M  V30 END CTAB
M  END
