
     RDKit          3D

  0  0  0  0  0  0  0  0  0  0999 V3000
M  V30 BEGIN CTAB
M  V30 COUNTS 55 61 0 0 0
M  V30 BEGIN ATOM
M  V30 1 Fe -0.071710 -0.010700 0.126900 0 CHG=2 VAL=6
M  V30 2 N -0.561900 -1.807980 -1.104750 0
M  V30 3 N 1.857520 -1.002250 -0.074060 0
M  V30 4 N 0.689120 1.947590 0.454130 0
M  V30 5 N -2.208430 0.141800 -0.135750 0
M  V30 6 N 0.240860 0.851940 -1.988290 0
M  V30 7 C -0.542210 -1.421210 -2.551990 0
M  V30 8 C 0.484530 -0.329690 -2.853940 0
M  V30 9 C -0.898650 1.661000 -2.490870 0
M  V30 10 C 0.585300 2.585010 1.639260 0
M  V30 11 C 1.307280 2.556520 -0.585740 0
M  V30 12 C 1.090850 3.865140 1.833460 0
M  V30 13 C 1.834060 3.837960 -0.461770 0
M  V30 14 C 1.725460 4.501350 0.763720 0
M  V30 15 C 1.427130 1.729290 -1.848340 0
M  V30 16 C 1.819890 -2.268950 -0.534660 0
M  V30 17 C 3.037080 -0.467960 0.297320 0
M  V30 18 C 2.979800 -3.027030 -0.681290 0
M  V30 19 C 4.233740 -1.167170 0.196370 0
M  V30 20 C 4.204440 -2.468310 -0.312380 0
M  V30 21 C 0.444040 -2.850450 -0.773560 0
M  V30 22 C -2.940010 1.237800 0.135180 0
M  V30 23 C -4.323970 1.254470 0.006560 0
M  V30 24 C -4.966110 0.091620 -0.426210 0
M  V30 25 C -4.205280 -1.047350 -0.699350 0
M  V30 26 C -2.824190 -0.992820 -0.528740 0
M  V30 27 C -1.932700 -2.206050 -0.682770 0
M  V30 28 H -0.346290 -2.302380 -3.174920 0
M  V30 29 H -1.542670 -1.067010 -2.807900 0
M  V30 30 H 0.428410 -0.062430 -3.917920 0
M  V30 31 H 1.494190 -0.694870 -2.660430 0
M  V30 32 H -1.797750 1.051790 -2.563180 0
M  V30 33 H -0.668380 2.081660 -3.478210 0
M  V30 34 H -1.097680 2.476970 -1.793710 0
M  V30 35 H 0.089390 2.032460 2.429910 0
M  V30 36 H 0.988620 4.348250 2.799050 0
M  V30 37 H 2.318620 4.310080 -1.310470 0
M  V30 38 H 2.128500 5.502850 0.879490 0
M  V30 39 H 1.560540 2.374590 -2.726130 0
M  V30 40 H 2.316740 1.096090 -1.772400 0
M  V30 41 H 2.998580 0.545000 0.683830 0
M  V30 42 H 2.922390 -4.040140 -1.066780 0
M  V30 43 H 5.162980 -0.702570 0.507540 0
M  V30 44 H 5.120550 -3.041710 -0.414710 0
M  V30 45 H 0.130400 -3.327580 0.161310 0
M  V30 46 H 0.472500 -3.632210 -1.542710 0
M  V30 47 H -2.384960 2.113740 0.456600 0
M  V30 48 H -4.881290 2.156140 0.235780 0
M  V30 49 H -6.044640 0.070480 -0.548000 0
M  V30 50 H -4.676900 -1.967100 -1.030600 0
M  V30 51 H -2.369220 -2.935170 -1.376820 0
M  V30 52 H -1.851060 -2.687430 0.297380 0
M  V30 53 N -0.279390 -0.604770 1.901420 0
M  V30 54 C -0.416060 -1.006440 3.033590 0
M  V30 55 S -0.594880 -1.531610 4.513920 0
M  V30 END ATOM
M  V30 BEGIN BOND
M  V30 1 1 30 8
M  V30 2 1 33 9
M  V30 3 1 28 7
M  V30 4 1 8 31
M  V30 5 1 8 7
M  V30 6 1 8 6
M  V30 7 1 29 7
M  V30 8 1 39 15
M  V30 9 1 32 9
M  V30 10 1 7 2
M  V30 11 1 9 6
M  V30 12 1 9 34
M  V30 13 1 6 15
M  V30 14 1 15 40
M  V30 15 1 15 11
M  V30 16 1 46 21
M  V30 17 1 51 27
M  V30 18 1 37 13
M  V30 19 1 2 21
M  V30 20 1 2 27
M  V30 21 1 42 18
M  V30 22 1 50 25
M  V30 23 1 21 16
M  V30 24 1 21 45
M  V30 25 1 25 26
M  V30 26 2 25 24
M  V30 27 1 27 26
M  V30 28 1 27 52
M  V30 29 1 18 16
M  V30 30 2 18 20
M  V30 31 1 11 13
M  V30 32 2 11 4
M  V30 33 1 49 24
M  V30 34 2 16 3
M  V30 35 2 26 5
M  V30 36 2 13 14
M  V30 37 1 24 23
M  V30 38 1 44 20
M  V30 39 1 20 19
M  V30 40 1 5 22
M  V30 41 1 3 17
M  V30 42 2 23 22
M  V30 43 1 23 48
M  V30 44 1 1 53
M  V30 45 1 22 47
M  V30 46 2 19 17
M  V30 47 1 19 43
M  V30 48 1 17 41
M  V30 49 1 4 10
M  V30 50 1 14 38
M  V30 51 1 14 12
M  V30 52 2 10 12
M  V30 53 1 10 35
M  V30 54 1 12 36
M  V30 55 2 53 54
M  V30 56 2 54 55
M  V30 57 9 2 1
M  V30 58 9 3 1
M  V30 59 9 4 1
M  V30 60 9 5 1
M  V30 61 9 6 1
M  V30 END BOND
M  V30 END CTAB
M  END
