
     RDKit          3D

  0  0  0  0  0  0  0  0  0  0999 V3000
M  V30 BEGIN CTAB
M  V30 COUNTS 54 65 0 0 0
M  V30 BEGIN ATOM
M  V30 1 Fe 0.316350 -0.003720 -0.094950 0 CHG=3 VAL=9
M  V30 2 N 1.534520 1.180080 -1.116440 0
M  V30 3 N 1.433400 -1.496110 -0.787560 0
M  V30 4 N 1.500420 0.155310 1.424280 0
M  V30 5 B 3.423680 -0.140660 -0.144990 0 CHG=-1 VAL=4
M  V30 6 H 4.617480 -0.183630 -0.141330 0
M  V30 7 B -2.883420 0.244180 1.118310 0 CHG=-1 VAL=4
M  V30 8 H -3.745970 0.361890 1.940380 0
M  V30 9 N 2.847400 0.064440 1.276200 0
M  V30 10 N 2.880650 1.018230 -1.011330 0
M  V30 11 N 2.787420 -1.426990 -0.706590 0
M  V30 12 N -4.328980 -0.963750 -0.536750 0
M  V30 13 N -3.527950 0.076870 -0.295670 0
M  V30 14 N -0.793710 -1.240300 0.952430 0
M  V30 15 N -2.040320 -0.996060 1.447640 0
M  V30 16 N -0.738310 1.544850 0.586520 0
M  V30 17 N -1.992330 1.493100 1.121430 0
M  V30 18 C 1.239040 0.353110 2.728370 0
M  V30 19 H 0.217970 0.449310 3.065550 0
M  V30 20 C 2.438280 0.391250 3.439660 0
M  V30 21 H 2.571240 0.533360 4.501500 0
M  V30 22 C 3.432260 0.205630 2.478120 0
M  V30 23 H 4.508330 0.167130 2.568500 0
M  V30 24 C 1.314830 2.171590 -1.994980 0
M  V30 25 H 0.304030 2.456460 -2.242490 0
M  V30 26 C 2.535080 2.669260 -2.460270 0
M  V30 27 H 2.694800 3.465370 -3.171590 0
M  V30 28 C 3.501150 1.904830 -1.812420 0
M  V30 29 H 4.580000 1.928210 -1.867040 0
M  V30 30 C 1.122220 -2.641750 -1.412120 0
M  V30 31 H 0.087940 -2.895750 -1.588480 0
M  V30 32 C 2.294920 -3.334740 -1.735440 0
M  V30 33 H 2.379760 -4.286450 -2.237750 0
M  V30 34 C 3.326330 -2.525340 -1.274550 0
M  V30 35 H 4.399020 -2.649150 -1.311110 0
M  V30 36 C -4.666800 -0.907530 -1.861770 0
M  V30 37 H -5.324200 -1.660440 -2.273140 0
M  V30 38 C -4.071450 0.171830 -2.476350 0
M  V30 39 H -4.133600 0.495980 -3.504660 0
M  V30 40 C -3.310010 0.793890 -1.430800 0
M  V30 41 H -2.823010 1.756710 -1.407420 0
M  V30 42 C -0.393610 -2.422970 1.457380 0
M  V30 43 H 0.588660 -2.802670 1.227950 0
M  V30 44 C -1.393920 -2.965260 2.263550 0
M  V30 45 H -1.374170 -3.901440 2.800460 0
M  V30 46 C -2.419000 -2.028370 2.228560 0
M  V30 47 H -3.392430 -2.022500 2.696370 0
M  V30 48 C -0.276710 2.789920 0.787310 0
M  V30 49 H 0.721310 3.052210 0.474580 0
M  V30 50 C -1.241310 3.565920 1.438200 0
M  V30 51 H -1.165220 4.601120 1.734610 0
M  V30 52 C -2.309790 2.704440 1.633540 0
M  V30 53 H -3.271890 2.858530 2.100380 0
M  V30 54 Cl -1.001820 -0.199240 -2.012850 0
M  V30 END ATOM
M  V30 BEGIN BOND
M  V30 1 1 39 38
M  V30 2 1 27 26
M  V30 3 1 38 36
M  V30 4 2 38 40
M  V30 5 1 26 24
M  V30 6 2 26 28
M  V30 7 1 37 36
M  V30 8 1 25 24
M  V30 9 1 33 32
M  V30 10 1 54 1
M  V30 11 2 24 2
M  V30 12 1 29 28
M  V30 13 2 36 12
M  V30 14 1 28 10
M  V30 15 1 32 30
M  V30 16 2 32 34
M  V30 17 1 31 30
M  V30 18 1 40 41
M  V30 19 1 40 13
M  V30 20 2 30 3
M  V30 21 1 35 34
M  V30 22 1 34 11
M  V30 23 1 2 10
M  V30 24 1 10 5
M  V30 25 1 3 11
M  V30 26 1 11 5
M  V30 27 1 12 13
M  V30 28 1 13 7
M  V30 29 1 5 6
M  V30 30 1 5 9
M  V30 31 1 49 48
M  V30 32 2 16 48
M  V30 33 1 16 17
M  V30 34 1 48 50
M  V30 35 1 14 15
M  V30 36 2 14 42
M  V30 37 1 7 17
M  V30 38 1 7 15
M  V30 39 1 7 8
M  V30 40 1 17 52
M  V30 41 1 43 42
M  V30 42 1 9 4
M  V30 43 1 9 22
M  V30 44 2 4 18
M  V30 45 2 50 52
M  V30 46 1 50 51
M  V30 47 1 15 46
M  V30 48 1 42 44
M  V30 49 1 52 53
M  V30 50 2 46 44
M  V30 51 1 46 47
M  V30 52 1 44 45
M  V30 53 1 22 23
M  V30 54 2 22 20
M  V30 55 1 18 19
M  V30 56 1 18 20
M  V30 57 1 20 21
M  V30 58 9 2 1
M  V30 59 9 3 1
M  V30 60 9 4 1
M  V30 61 9 9 1
M  V30 62 9 10 1
M  V30 63 9 11 1
M  V30 64 9 14 1
M  V30 65 9 16 1
M  V30 END BOND
M  V30 END CTAB
M  END
