
     RDKit          3D

  0  0  0  0  0  0  0  0  0  0999 V3000
M  V30 BEGIN CTAB
M  V30 COUNTS 49 52 0 0 0
M  V30 BEGIN ATOM
M  V30 1 C 3.085980 -2.566840 0.258330 0
M  V30 2 C 2.273910 -1.311590 0.235110 0
M  V30 3 C 2.929700 -0.003970 -0.002380 0
M  V30 4 Cl 4.558790 -0.006270 -0.464620 0
M  V30 5 O 1.040930 -1.366000 0.431730 0
M  V30 6 Fe -0.406860 -0.006650 -0.263690 0 CHG=2 VAL=6
M  V30 7 N -1.370370 -0.065990 1.728620 0
M  V30 8 C -0.380210 0.126180 2.820570 0
M  V30 9 O 1.041520 1.368810 0.408090 0
M  V30 10 C 2.276770 1.306450 0.231130 0
M  V30 11 C 3.096170 2.556840 0.269040 0
M  V30 12 N -1.981080 -1.397690 -0.719240 0
M  V30 13 C -1.359830 -2.599590 -1.342270 0
M  V30 14 N -1.916540 1.481550 -0.609480 0
M  V30 15 C -1.362630 2.483110 -1.563070 0
M  V30 16 C -2.763070 -0.606160 -1.720190 0
M  V30 17 C -3.119940 0.783730 -1.182360 0
M  V30 18 C -2.752960 -1.753640 0.514340 0
M  V30 19 C -1.933910 -1.448600 1.770140 0
M  V30 20 C -2.153930 2.082830 0.735530 0
M  V30 21 C -2.422970 1.003280 1.784540 0
M  V30 22 H 3.930930 -2.485610 0.951840 0
M  V30 23 H 3.512520 -2.752700 -0.736680 0
M  V30 24 H 2.446970 -3.404070 0.541330 0
M  V30 25 H 2.459710 3.396130 0.551920 0
M  V30 26 H 3.532000 2.746740 -0.721220 0
M  V30 27 H 3.934830 2.466380 0.968920 0
M  V30 28 H -3.011670 -2.816820 0.496880 0
M  V30 29 H -3.696960 -1.207550 0.514480 0
M  V30 30 H -2.544930 -1.598950 2.669470 0
M  V30 31 H -1.079840 -2.129950 1.826470 0
M  V30 32 H -2.442710 1.461020 2.778460 0
M  V30 33 H -3.404500 0.551060 1.639270 0
M  V30 34 H -1.243830 2.632330 0.992620 0
M  V30 35 H -2.983580 2.800110 0.698380 0
M  V30 36 H -3.891050 0.723050 -0.413650 0
M  V30 37 H -3.539080 1.384790 -1.994840 0
M  V30 38 H -3.674030 -1.145500 -2.008550 0
M  V30 39 H -2.126780 -0.510850 -2.602970 0
M  V30 40 H -2.132230 -3.276620 -1.724590 0
M  V30 41 H -0.761260 -3.114720 -0.588170 0
M  V30 42 H -0.708430 -2.278800 -2.156280 0
M  V30 43 H -0.849510 -0.011840 3.801740 0
M  V30 44 H 0.031460 1.134880 2.754960 0
M  V30 45 H 0.429060 -0.596150 2.704870 0
M  V30 46 H -2.071090 3.306740 -1.707000 0
M  V30 47 H -1.157320 1.990560 -2.513790 0
M  V30 48 H -0.425390 2.872890 -1.161080 0
M  V30 49 F 0.253710 -0.035180 -1.908590 0
M  V30 END ATOM
M  V30 BEGIN BOND
M  V30 1 1 39 16
M  V30 2 1 47 15
M  V30 3 1 42 13
M  V30 4 1 38 16
M  V30 5 1 37 17
M  V30 6 1 49 6
M  V30 7 1 40 13
M  V30 8 1 16 17
M  V30 9 1 16 12
M  V30 10 1 46 15
M  V30 11 1 15 48
M  V30 12 1 15 14
M  V30 13 1 13 12
M  V30 14 1 13 41
M  V30 15 1 17 14
M  V30 16 1 17 36
M  V30 17 1 23 1
M  V30 18 1 26 11
M  V30 19 1 12 18
M  V30 20 1 14 20
M  V30 21 1 4 3
M  V30 22 1 6 9
M  V30 23 2 3 10 CFG=2
M  V30 24 1 3 2
M  V30 25 1 10 11
M  V30 26 1 10 9
M  V30 27 1 2 1
M  V30 28 2 2 5
M  V30 29 1 1 24
M  V30 30 1 1 22
M  V30 31 1 11 25
M  V30 32 1 11 27
M  V30 33 1 28 18
M  V30 34 1 18 29
M  V30 35 1 18 19
M  V30 36 1 35 20
M  V30 37 1 20 34
M  V30 38 1 20 21
M  V30 39 1 33 21
M  V30 40 1 7 19
M  V30 41 1 7 21
M  V30 42 1 7 8
M  V30 43 1 19 31
M  V30 44 1 19 30
M  V30 45 1 21 32
M  V30 46 1 45 8
M  V30 47 1 44 8
M  V30 48 1 8 43
M  V30 49 9 5 6
M  V30 50 9 7 6
M  V30 51 9 12 6
M  V30 52 9 14 6
M  V30 END BOND
M  V30 END CTAB
M  END
