
     RDKit          3D

  0  0  0  0  0  0  0  0  0  0999 V3000
M  V30 BEGIN CTAB
M  V30 COUNTS 49 52 0 0 0
M  V30 BEGIN ATOM
M  V30 1 C 2.977940 -0.540070 -2.610360 0
M  V30 2 C 2.167510 -0.532940 -1.355070 0
M  V30 3 C 2.835000 -0.436710 -0.036420 0
M  V30 4 Cl 4.495470 -0.104930 -0.008510 0
M  V30 5 O 0.921120 -0.615070 -1.420650 0
M  V30 6 Fe -0.485810 0.037890 -0.008480 0 CHG=2 VAL=6
M  V30 7 N -1.443900 -1.967100 -0.206040 0
M  V30 8 C -0.462480 -3.075980 -0.092790 0
M  V30 9 O 0.919600 -0.806200 1.310770 0
M  V30 10 C 2.166300 -0.743450 1.250640 0
M  V30 11 C 2.980590 -0.984450 2.480610 0
M  V30 12 N -2.080840 0.577880 -1.364240 0
M  V30 13 C -1.537970 1.286430 -2.560540 0
M  V30 14 N -2.007950 0.271020 1.508350 0
M  V30 15 C -1.527640 1.126560 2.633860 0
M  V30 16 C -2.896420 1.497650 -0.508260 0
M  V30 17 C -3.225120 0.867260 0.850300 0
M  V30 18 C -2.839170 -0.648070 -1.791270 0
M  V30 19 C -2.004060 -1.908410 -1.586920 0
M  V30 20 C -2.228020 -1.124750 2.001020 0
M  V30 21 C -2.495210 -2.096010 0.855440 0
M  V30 22 H 3.779680 -1.285960 -2.572030 0
M  V30 23 H 3.462720 0.438040 -2.737120 0
M  V30 24 H 2.323660 -0.730810 -3.461790 0
M  V30 25 H 2.325100 -1.308410 3.289890 0
M  V30 26 H 3.485910 -0.053710 2.773820 0
M  V30 27 H 3.766700 -1.727820 2.307120 0
M  V30 28 H -3.113650 -0.561950 -2.846700 0
M  V30 29 H -3.775710 -0.698720 -1.235320 0
M  V30 30 H -2.604450 -2.801580 -1.804600 0
M  V30 31 H -1.150370 -1.902080 -2.270460 0
M  V30 32 H -2.510290 -3.118140 1.246560 0
M  V30 33 H -3.477880 -1.926230 0.414990 0
M  V30 34 H -1.313040 -1.412010 2.526250 0
M  V30 35 H -3.054460 -1.147590 2.722700 0
M  V30 36 H -3.986110 0.092690 0.749570 0
M  V30 37 H -3.652120 1.635030 1.501810 0
M  V30 38 H -3.824090 1.775090 -1.024830 0
M  V30 39 H -2.304270 2.404030 -0.366690 0
M  V30 40 H -2.356950 1.609830 -3.212980 0
M  V30 41 H -0.883940 0.601570 -3.104370 0
M  V30 42 H -0.958220 2.152290 -2.243510 0
M  V30 43 H -0.943200 -4.038740 -0.303700 0
M  V30 44 H -0.053600 -3.090830 0.918480 0
M  V30 45 H 0.347370 -2.917530 -0.805370 0
M  V30 46 H -2.238210 1.084100 3.467390 0
M  V30 47 H -1.422050 2.154230 2.288830 0
M  V30 48 H -0.551480 0.765480 2.962940 0
M  V30 49 Br 0.612180 2.225240 0.151870 0
M  V30 END ATOM
M  V30 BEGIN BOND
M  V30 1 1 24 1
M  V30 2 1 40 13
M  V30 3 1 41 13
M  V30 4 1 28 18
M  V30 5 1 23 1
M  V30 6 1 1 22
M  V30 7 1 1 2
M  V30 8 1 13 42
M  V30 9 1 13 12
M  V30 10 1 31 19
M  V30 11 1 30 19
M  V30 12 1 18 19
M  V30 13 1 18 12
M  V30 14 1 18 29
M  V30 15 1 19 7
M  V30 16 1 5 2
M  V30 17 1 5 6
M  V30 18 1 12 16
M  V30 19 2 2 3 CFG=2
M  V30 20 1 38 16
M  V30 21 1 45 8
M  V30 22 1 16 39
M  V30 23 1 16 17
M  V30 24 1 43 8
M  V30 25 1 7 8
M  V30 26 1 7 21
M  V30 27 1 8 44
M  V30 28 1 3 4
M  V30 29 1 3 10
M  V30 30 1 6 49
M  V30 31 1 33 21
M  V30 32 1 36 17
M  V30 33 1 17 37
M  V30 34 1 17 14
M  V30 35 1 21 32
M  V30 36 1 21 20
M  V30 37 2 10 9
M  V30 38 1 10 11
M  V30 39 1 14 20
M  V30 40 1 14 15
M  V30 41 1 20 34
M  V30 42 1 20 35
M  V30 43 1 47 15
M  V30 44 1 27 11
M  V30 45 1 11 26
M  V30 46 1 11 25
M  V30 47 1 15 48
M  V30 48 1 15 46
M  V30 49 9 7 6
M  V30 50 9 9 6
M  V30 51 9 12 6
M  V30 52 9 14 6
M  V30 END BOND
M  V30 END CTAB
M  END
