
     RDKit          3D

  0  0  0  0  0  0  0  0  0  0999 V3000
M  V30 BEGIN CTAB
M  V30 COUNTS 81 81 0 0 0
M  V30 BEGIN ATOM
M  V30 1 Fe 1.977400 -0.184920 0.218600 0 VAL=5
M  V30 2 N 3.266100 -0.708500 -1.544900 0
M  V30 3 C 3.585000 -1.911500 -1.991600 0
M  V30 4 N 4.471100 -1.812100 -3.014600 0
M  V30 5 C 3.979400 0.205500 -2.299600 0
M  V30 6 C 4.735600 -0.468000 -3.220900 0
M  V30 7 H 3.200600 -2.844400 -1.604800 0
M  V30 8 H 4.861000 -2.585200 -3.533300 0
M  V30 9 H 3.908700 1.264900 -2.091300 0
M  V30 10 H 5.419700 -0.128700 -3.983100 0
M  V30 11 O 1.723200 1.572500 -0.654900 0
M  V30 12 C 2.149000 2.775400 -0.910700 0
M  V30 13 O 3.340000 3.085700 -1.045700 0
M  V30 14 C 1.040500 3.803300 -1.051600 0
M  V30 15 H 1.446200 4.773900 -1.344900 0
M  V30 16 H 0.515100 3.890600 -0.095700 0
M  V30 17 H 0.304000 3.463700 -1.785600 0
M  V30 18 N 3.840400 0.245500 1.245500 0
M  V30 19 C 4.322800 -0.546600 2.186200 0
M  V30 20 N 5.453900 -0.011000 2.705600 0
M  V30 21 C 4.684800 1.335200 1.146800 0
M  V30 22 C 5.698800 1.188400 2.054600 0
M  V30 23 H 3.876400 -1.482100 2.486200 0
M  V30 24 H 6.012500 -0.415200 3.442600 0
M  V30 25 H 4.480100 2.117400 0.426400 0
M  V30 26 H 6.548500 1.807700 2.296000 0
M  V30 27 O -2.598900 0.576800 -0.572000 0
M  V30 28 C -2.510500 1.873600 -0.991100 0
M  V30 29 C -2.352100 2.201700 -2.341000 0
M  V30 30 C -2.299400 3.541300 -2.732400 0
M  V30 31 C -2.399700 4.550700 -1.776100 0
M  V30 32 C -2.550500 4.222200 -0.426100 0
M  V30 33 C -2.606100 2.886200 -0.014500 0
M  V30 34 S -2.808000 2.346500 1.673300 0
M  V30 35 C -2.459200 3.863400 2.621600 0
M  V30 36 H -2.380400 -0.038500 -1.337400 0
M  V30 37 H -2.264900 1.397200 -3.065700 0
M  V30 38 H -2.174100 3.788600 -3.782900 0
M  V30 39 H -2.352700 5.595000 -2.070700 0
M  V30 40 H -2.618000 5.018700 0.306500 0
M  V30 41 H -2.467500 3.562300 3.672400 0
M  V30 42 H -3.222700 4.631200 2.466200 0
M  V30 43 H -1.464300 4.239600 2.373400 0
M  V30 44 N -0.999700 -1.528600 2.564800 0
M  V30 45 C -2.228600 -1.364500 2.023200 0
M  V30 46 N -2.990400 -2.440800 2.208800 0
M  V30 47 C -2.197000 -3.333500 2.905700 0
M  V30 48 C -0.957000 -2.782800 3.127900 0
M  V30 49 H -0.231200 -0.840000 2.467400 0
M  V30 50 H -2.509400 -0.471900 1.484600 0
M  V30 51 H -2.565100 -4.306900 3.199200 0
M  V30 52 H -0.066300 -3.166000 3.600500 0
M  V30 53 N -3.888900 -3.041600 -0.626200 0
M  V30 54 C -4.577500 -1.893100 -0.650600 0
M  V30 55 N -4.775600 -1.267000 -1.833600 0 CHG=1 VAL=4
M  V30 56 N -5.119700 -1.440800 0.489900 0
M  V30 57 C -5.713500 -0.115400 0.619900 0
M  V30 58 H -3.321800 -3.303100 -1.443400 0
M  V30 59 H -3.539800 -3.324600 0.286200 0
M  V30 60 H -3.976200 -1.358300 -2.477200 0
M  V30 61 H -5.107900 -0.313600 -1.773100 0
M  V30 62 H -4.725000 -1.875600 1.331800 0
M  V30 63 H -6.018400 0.015500 1.659000 0
M  V30 64 H -6.607700 -0.028800 -0.007700 0
M  V30 65 H -4.997800 0.675900 0.370100 0
M  V30 66 S 1.526600 -3.446400 0.381500 0
M  V30 67 C -0.084400 -3.101600 -0.397600 0
M  V30 68 C -0.083700 -2.056800 -1.520200 0 CFG=2
M  V30 69 N 0.188700 -0.712000 -0.980900 0
M  V30 70 C -1.442200 -2.159900 -2.283500 0
M  V30 71 O -2.068900 -1.070700 -2.519600 0 CHG=-1 VAL=1
M  V30 72 O -1.847900 -3.305400 -2.560900 0
M  V30 73 H -0.400800 -4.059600 -0.821100 0
M  V30 74 H -0.805600 -2.817400 0.374100 0
M  V30 75 H 0.716600 -2.291700 -2.231100 0
M  V30 76 H -0.575600 -0.411200 -0.372500 0
M  V30 77 H 0.204400 -0.024600 -1.734700 0
M  V30 78 O 2.083100 -1.990600 0.860900 0 RAD=2 VAL=1
M  V30 79 N 0.876100 0.458500 1.831800 0
M  V30 80 N 0.777800 1.642500 2.077100 0 CHG=1 VAL=4
M  V30 81 N 0.691000 2.762700 2.336800 0 CHG=-1 VAL=2
M  V30 END ATOM
M  V30 BEGIN BOND
M  V30 1 1 10 6
M  V30 2 1 38 30
M  V30 3 1 8 4
M  V30 4 1 6 4
M  V30 5 2 6 5
M  V30 6 1 37 29
M  V30 7 1 4 3
M  V30 8 1 30 29
M  V30 9 2 30 31
M  V30 10 2 72 70
M  V30 11 1 71 70
M  V30 12 1 60 55
M  V30 13 2 29 28
M  V30 14 1 5 9
M  V30 15 1 5 2
M  V30 16 1 70 68
M  V30 17 1 68 75 CFG=3
M  V30 18 1 39 31
M  V30 19 1 3 7
M  V30 20 2 3 2
M  V30 21 1 55 61
M  V30 22 2 55 54
M  V30 23 1 17 14
M  V30 24 1 31 32
M  V30 25 1 77 69
M  V30 26 1 68 69
M  V30 27 1 68 67
M  V30 28 1 58 53
M  V30 29 1 15 14
M  V30 30 1 36 27
M  V30 31 1 14 12
M  V30 32 1 14 16
M  V30 33 2 13 12
M  V30 34 1 28 27
M  V30 35 1 28 33
M  V30 36 1 69 76
M  V30 37 1 12 11
M  V30 38 1 73 67
M  V30 39 1 54 53
M  V30 40 1 54 56
M  V30 41 1 53 59
M  V30 42 2 32 33
M  V30 43 1 32 40
M  V30 44 1 67 74
M  V30 45 1 67 66
M  V30 46 1 33 34
M  V30 47 1 64 57
M  V30 48 1 65 57
M  V30 49 1 66 78
M  V30 50 1 25 21
M  V30 51 1 56 57
M  V30 52 1 56 62
M  V30 53 1 57 63
M  V30 54 1 21 18
M  V30 55 2 21 22
M  V30 56 2 18 19
M  V30 57 1 50 45
M  V30 58 1 34 35
M  V30 59 2 79 80
M  V30 60 2 45 46
M  V30 61 1 45 44
M  V30 62 1 22 26
M  V30 63 1 22 20
M  V30 64 2 80 81
M  V30 65 1 19 23
M  V30 66 1 19 20
M  V30 67 1 46 47
M  V30 68 1 43 35
M  V30 69 1 42 35
M  V30 70 1 49 44
M  V30 71 1 44 48
M  V30 72 1 35 41
M  V30 73 1 20 24
M  V30 74 2 47 48
M  V30 75 1 47 51
M  V30 76 1 48 52
M  V30 77 1 1 11
M  V30 78 1 1 79
M  V30 79 9 2 1
M  V30 80 9 18 1
M  V30 81 9 69 1
M  V30 END BOND
M  V30 END CTAB
M  END
