
     RDKit          3D

  0  0  0  0  0  0  0  0  0  0999 V3000
M  V30 BEGIN CTAB
M  V30 COUNTS 81 80 0 0 0
M  V30 BEGIN ATOM
M  V30 1 Fe -2.584310 -0.343790 0.331190 0 CHG=1 RAD=2 VAL=4
M  V30 2 O -3.725600 0.845000 1.557300 0
M  V30 3 C -3.372100 1.634500 2.508600 0
M  V30 4 O -2.197800 1.913900 2.833800 0 CHG=-1 VAL=1
M  V30 5 C -4.531900 2.269900 3.269400 0
M  V30 6 H -5.171000 1.483700 3.685600 0
M  V30 7 H -5.148100 2.854800 2.576600 0
M  V30 8 H -4.164800 2.914900 4.070200 0
M  V30 9 N -2.076400 1.553400 -0.732000 0
M  V30 10 C -1.563000 2.628400 -0.153100 0
M  V30 11 N -1.297600 3.577600 -1.081400 0
M  V30 12 C -2.136300 1.823400 -2.086600 0
M  V30 13 C -1.648200 3.079800 -2.323000 0
M  V30 14 H -1.385000 2.745900 0.904700 0
M  V30 15 H -0.837100 4.455700 -0.893600 0
M  V30 16 H -2.505200 1.093000 -2.788600 0
M  V30 17 H -1.519000 3.648900 -3.230100 0
M  V30 18 N -4.311100 -0.487400 -0.997400 0
M  V30 19 C -4.513100 -1.304200 -2.015500 0
M  V30 20 N -5.697300 -1.020700 -2.612400 0
M  V30 21 C -5.403400 0.353100 -0.929100 0
M  V30 22 C -6.279800 0.035200 -1.930800 0
M  V30 23 H -3.840100 -2.080800 -2.342700 0
M  V30 24 H -6.079400 -1.497200 -3.416000 0
M  V30 25 H -5.454100 1.098100 -0.150800 0
M  V30 26 H -7.237500 0.442300 -2.215100 0
M  V30 27 O 1.251300 2.437500 1.178200 0
M  V30 28 C 2.423700 2.657000 0.509800 0
M  V30 29 C 3.441700 3.416900 1.086800 0
M  V30 30 C 4.630500 3.664100 0.392100 0
M  V30 31 C 4.792800 3.155100 -0.897000 0
M  V30 32 C 3.776900 2.393400 -1.488000 0
M  V30 33 C 2.590500 2.125400 -0.791700 0
M  V30 34 S 1.241200 1.141300 -1.386100 0
M  V30 35 C 1.795500 0.612100 -3.037300 0
M  V30 36 H 1.357600 1.618300 1.746500 0
M  V30 37 H 3.281400 3.801200 2.089600 0
M  V30 38 H 5.418500 4.250500 0.855600 0
M  V30 39 H 5.706700 3.348500 -1.452500 0
M  V30 40 H 3.920200 2.005800 -2.491200 0
M  V30 41 H 0.943200 0.072600 -3.459900 0
M  V30 42 H 2.654200 -0.063800 -2.986300 0
M  V30 43 H 2.021100 1.472100 -3.675600 0
M  V30 44 N 1.351500 -2.605000 -1.366800 0
M  V30 45 C 2.371400 -2.775000 -0.490200 0
M  V30 46 N 3.495400 -3.117700 -1.109400 0
M  V30 47 C 3.169700 -3.162500 -2.452200 0
M  V30 48 C 1.843700 -2.845900 -2.630400 0
M  V30 49 H 0.404300 -2.274900 -1.140600 0
M  V30 50 H 2.245400 -2.648800 0.575200 0
M  V30 51 H 3.903500 -3.425300 -3.202100 0
M  V30 52 H 1.217000 -2.758800 -3.504700 0
M  V30 53 N 4.478600 -2.099700 1.828000 0
M  V30 54 C 4.841000 -1.098100 1.017600 0
M  V30 55 N 4.518600 0.160800 1.342400 0 CHG=1 VAL=4
M  V30 56 N 5.589000 -1.400100 -0.072800 0
M  V30 57 C 5.995000 -0.378200 -1.028000 0
M  V30 58 H 3.626400 -1.992600 2.422500 0
M  V30 59 H 4.666500 -3.037100 1.496200 0
M  V30 60 H 3.709400 0.273200 1.974900 0
M  V30 61 H 4.576800 0.870300 0.622800 0
M  V30 62 H 5.243100 -2.266600 -0.504500 0
M  V30 63 H 6.693900 -0.831700 -1.734200 0
M  V30 64 H 6.512300 0.436800 -0.513900 0
M  V30 65 H 5.147000 0.039800 -1.584500 0
M  V30 66 S -2.252600 -2.989800 2.198300 0
M  V30 67 C -0.506600 -2.519100 1.979000 0
M  V30 68 C -0.170300 -1.083800 2.413700 0 CFG=2
M  V30 69 N -0.732100 -0.075500 1.495500 0
M  V30 70 C 1.374200 -0.942200 2.584600 0
M  V30 71 O 1.897200 0.194600 2.375100 0
M  V30 72 O 2.001300 -1.979800 2.912200 0 CHG=-1 VAL=1
M  V30 73 H 0.061700 -3.226600 2.588900 0
M  V30 74 H -0.244300 -2.671900 0.929800 0
M  V30 75 H -0.614500 -0.906200 3.401000 0
M  V30 76 H -0.031700 0.203900 0.809600 0
M  V30 77 H -1.014400 0.762700 2.031500 0
M  V30 78 O -3.079900 -1.949000 1.334000 0 RAD=2 VAL=1
M  V30 79 N -1.373500 -1.454700 -1.130400 0
M  V30 80 N -1.368700 -1.282400 -2.322200 0 CHG=1 VAL=4
M  V30 81 N -1.346900 -1.153200 -3.480600 0 CHG=-1 VAL=2
M  V30 END ATOM
M  V30 BEGIN BOND
M  V30 1 1 43 35
M  V30 2 1 52 48
M  V30 3 2 81 80
M  V30 4 1 41 35
M  V30 5 1 24 20
M  V30 6 1 17 13
M  V30 7 1 51 47
M  V30 8 1 35 42
M  V30 9 1 35 34
M  V30 10 1 16 12
M  V30 11 2 48 47
M  V30 12 1 48 44
M  V30 13 1 20 19
M  V30 14 1 20 22
M  V30 15 1 40 32
M  V30 16 1 47 46
M  V30 17 1 23 19
M  V30 18 2 13 12
M  V30 19 1 13 11
M  V30 20 2 80 79
M  V30 21 1 26 22
M  V30 22 1 12 9
M  V30 23 2 19 18
M  V30 24 2 22 21
M  V30 25 1 63 57
M  V30 26 1 65 57
M  V30 27 2 32 31
M  V30 28 1 32 33
M  V30 29 1 39 31
M  V30 30 1 34 33
M  V30 31 1 44 49
M  V30 32 1 44 45
M  V30 33 2 46 45
M  V30 34 1 11 15
M  V30 35 1 11 10
M  V30 36 1 57 64
M  V30 37 1 57 56
M  V30 38 1 18 21
M  V30 39 1 21 25
M  V30 40 1 31 30
M  V30 41 2 33 28
M  V30 42 2 9 10
M  V30 43 1 62 56
M  V30 44 1 45 50
M  V30 45 1 10 14
M  V30 46 1 56 54
M  V30 47 1 30 38
M  V30 48 2 30 29
M  V30 49 1 28 29
M  V30 50 1 28 27
M  V30 51 1 61 55
M  V30 52 1 76 69
M  V30 53 1 74 67
M  V30 54 2 54 55
M  V30 55 1 54 53
M  V30 56 1 29 37
M  V30 57 1 27 36
M  V30 58 1 78 66
M  V30 59 1 55 60
M  V30 60 1 69 77
M  V30 61 1 69 68
M  V30 62 1 59 53
M  V30 63 2 2 3
M  V30 64 1 53 58
M  V30 65 1 67 66
M  V30 66 1 67 68
M  V30 67 1 67 73
M  V30 68 2 71 70
M  V30 69 1 68 70
M  V30 70 1 68 75 CFG=1
M  V30 71 1 3 4
M  V30 72 1 3 5
M  V30 73 1 7 5
M  V30 74 1 70 72
M  V30 75 1 5 6
M  V30 76 1 5 8
M  V30 77 1 1 79
M  V30 78 9 2 1
M  V30 79 9 9 1
M  V30 80 9 18 1
M  V30 END BOND
M  V30 END CTAB
M  END
