
     RDKit          3D

  0  0  0  0  0  0  0  0  0  0999 V3000
M  V30 BEGIN CTAB
M  V30 COUNTS 79 80 0 0 0
M  V30 BEGIN ATOM
M  V30 1 Fe -2.142210 0.088920 -0.382420 0 CHG=1 VAL=6
M  V30 2 N -3.232170 0.227480 1.582060 0
M  V30 3 C -4.344270 -0.439730 1.826140 0
M  V30 4 N -4.732050 -0.257770 3.112850 0
M  V30 5 C -2.876840 0.861560 2.758150 0
M  V30 6 C -3.800490 0.565560 3.724780 0
M  V30 7 H -4.860030 -1.061250 1.112080 0
M  V30 8 H -5.537210 -0.678550 3.552570 0
M  V30 9 H -1.978600 1.460840 2.804400 0
M  V30 10 H -3.883190 0.853950 4.761120 0
M  V30 11 O -0.213360 2.113020 1.674230 0
M  V30 12 C -0.742760 2.621120 0.664640 0
M  V30 13 O -1.613330 2.041850 -0.090230 0
M  V30 14 C -0.337680 4.035640 0.271190 0
M  V30 15 H -0.553960 4.718410 1.100020 0
M  V30 16 H -0.854360 4.370280 -0.631390 0
M  V30 17 H 0.745450 4.057240 0.110730 0
M  V30 18 N -3.919260 0.807610 -1.382540 0
M  V30 19 C -4.806490 0.046500 -1.995460 0
M  V30 20 N -5.723370 0.822150 -2.625400 0
M  V30 21 C -4.262860 2.119390 -1.625640 0
M  V30 22 C -5.390680 2.148950 -2.400980 0
M  V30 23 H -4.788100 -1.032890 -1.994730 0
M  V30 24 H -6.498550 0.488190 -3.179160 0
M  V30 25 H -3.653630 2.915100 -1.226210 0
M  V30 26 H -5.972060 2.961770 -2.807380 0
M  V30 27 O 2.290780 0.502170 0.205230 0
M  V30 28 C 2.803540 1.721190 0.494840 0
M  V30 29 C 2.949370 2.151480 1.822970 0
M  V30 30 C 3.519900 3.391410 2.097270 0
M  V30 31 C 3.945740 4.223420 1.057840 0
M  V30 32 C 3.778830 3.806440 -0.262760 0
M  V30 33 C 3.211440 2.560010 -0.564940 0
M  V30 34 S 3.063210 2.045070 -2.272480 0
M  V30 35 C 1.240380 2.035720 -2.497310 0
M  V30 36 H 2.034310 0.027720 1.050840 0
M  V30 37 H 2.575370 1.514160 2.618070 0
M  V30 38 H 3.620690 3.712770 3.130650 0
M  V30 39 H 4.387800 5.192280 1.271520 0
M  V30 40 H 4.085670 4.447390 -1.084260 0
M  V30 41 H 1.059740 1.780580 -3.545650 0
M  V30 42 H 0.828780 3.027010 -2.293810 0
M  V30 43 H 0.743880 1.296670 -1.870160 0
M  V30 44 N 0.586730 -1.950020 -2.363200 0
M  V30 45 C 1.887670 -1.735680 -2.054830 0
M  V30 46 N 2.602720 -2.855210 -2.142220 0
M  V30 47 C 1.704190 -3.832170 -2.527470 0
M  V30 48 C 0.449230 -3.286230 -2.664680 0
M  V30 49 H -0.161150 -1.226560 -2.309600 0
M  V30 50 H 2.266610 -0.767970 -1.755540 0
M  V30 51 H 2.014650 -4.856540 -2.682260 0
M  V30 52 H -0.504690 -3.714650 -2.932380 0
M  V30 53 N 3.450850 -3.128180 0.772040 0
M  V30 54 C 4.209760 -2.033880 0.633920 0 RAD=2 VAL=3
M  V30 55 N 4.427280 -1.244820 1.711410 0
M  V30 56 N 4.802320 -1.800350 -0.547410 0
M  V30 57 C 5.531620 -0.573110 -0.838870 0
M  V30 58 H 2.834190 -3.225330 1.593230 0
M  V30 59 H 3.113680 -3.543090 -0.091070 0
M  V30 60 H 3.610160 -1.217420 2.340710 0
M  V30 61 H 4.787300 -0.318850 1.516180 0
M  V30 62 H 4.371520 -2.304320 -1.331480 0
M  V30 63 H 5.875080 -0.623210 -1.873100 0
M  V30 64 H 6.411670 -0.486500 -0.191720 0
M  V30 65 H 4.900610 0.315960 -0.732620 0
M  V30 66 S -2.636870 -3.026340 0.395790 0
M  V30 67 C -0.872360 -2.970910 0.858820 0
M  V30 68 C -0.430440 -1.735210 1.646530 0
M  V30 69 N -0.453410 -0.539280 0.790410 0
M  V30 70 C 0.989420 -1.966240 2.254370 0
M  V30 71 O 1.745770 -0.939470 2.339630 0
M  V30 72 O 1.303850 -3.129880 2.574600 0 CHG=-1 VAL=1
M  V30 73 H -0.715250 -3.860850 1.475840 0
M  V30 74 H -0.260360 -3.078960 -0.044120 0
M  V30 75 H -1.130170 -1.556840 2.471400 0
M  V30 76 H 0.280780 -0.607360 0.085430 0
M  V30 77 H -0.232250 0.311010 1.337850 0
M  V30 78 O -2.885150 -1.695420 -0.519670 0
M  V30 79 F -1.102400 0.010800 -1.964850 0
M  V30 END ATOM
M  V30 BEGIN BOND
M  V30 1 1 41 35
M  V30 2 1 24 20
M  V30 3 1 52 48
M  V30 4 1 26 22
M  V30 5 1 51 47
M  V30 6 2 48 47
M  V30 7 1 48 44
M  V30 8 1 20 22
M  V30 9 1 20 19
M  V30 10 1 47 46
M  V30 11 1 35 42
M  V30 12 1 35 34
M  V30 13 1 35 43
M  V30 14 2 22 21
M  V30 15 1 44 49
M  V30 16 1 44 45
M  V30 17 1 34 33
M  V30 18 2 46 45
M  V30 19 1 45 50
M  V30 20 1 19 23
M  V30 21 2 19 18
M  V30 22 1 79 1
M  V30 23 1 63 57
M  V30 24 1 21 18
M  V30 25 1 21 25
M  V30 26 1 62 56
M  V30 27 1 40 32
M  V30 28 1 57 65
M  V30 29 1 57 56
M  V30 30 1 57 64
M  V30 31 1 16 14
M  V30 32 1 33 32
M  V30 33 2 33 28
M  V30 34 1 56 54
M  V30 35 1 78 1
M  V30 36 1 78 66
M  V30 37 1 1 13
M  V30 38 2 32 31
M  V30 39 1 59 53
M  V30 40 1 13 12
M  V30 41 1 74 67
M  V30 42 1 76 69
M  V30 43 1 17 14
M  V30 44 1 27 28
M  V30 45 1 27 36
M  V30 46 1 14 12
M  V30 47 1 14 15
M  V30 48 1 66 67
M  V30 49 1 28 29
M  V30 50 1 54 53
M  V30 51 1 54 55
M  V30 52 2 12 11
M  V30 53 1 53 58
M  V30 54 1 69 77
M  V30 55 1 69 68
M  V30 56 1 67 73
M  V30 57 1 67 68
M  V30 58 1 31 39
M  V30 59 1 31 30
M  V30 60 1 7 3
M  V30 61 1 61 55
M  V30 62 2 2 3
M  V30 63 1 2 5
M  V30 64 1 68 70
M  V30 65 1 68 75
M  V30 66 1 55 60
M  V30 67 2 29 30
M  V30 68 1 29 37
M  V30 69 1 3 4
M  V30 70 1 30 38
M  V30 71 2 70 71
M  V30 72 1 70 72
M  V30 73 1 5 9
M  V30 74 2 5 6
M  V30 75 1 4 8
M  V30 76 1 4 6
M  V30 77 1 6 10
M  V30 78 9 2 1
M  V30 79 9 18 1
M  V30 80 9 69 1
M  V30 END BOND
M  V30 END CTAB
M  END
