
     RDKit          3D

  0  0  0  0  0  0  0  0  0  0999 V3000
M  V30 BEGIN CTAB
M  V30 COUNTS 81 82 0 0 0
M  V30 BEGIN ATOM
M  V30 1 Fe 1.972640 -0.299040 0.072860 0 CHG=1 VAL=6
M  V30 2 N 3.217240 -1.135080 -1.569450 0
M  V30 3 C 3.540430 -2.396620 -1.799590 0
M  V30 4 N 4.398230 -2.475330 -2.847200 0
M  V30 5 C 3.897420 -0.365200 -2.496270 0
M  V30 6 C 4.639320 -1.188150 -3.299900 0
M  V30 7 H 3.176390 -3.247760 -1.242930 0
M  V30 8 H 4.785140 -3.325960 -3.229050 0
M  V30 9 H 3.813180 0.713690 -2.481820 0
M  V30 10 H 5.299530 -0.986550 -4.129040 0
M  V30 11 O 1.727700 1.245100 -1.110150 0
M  V30 12 C 2.115390 2.447820 -1.433010 0
M  V30 13 O 3.276940 2.739530 -1.740510 0
M  V30 14 C 1.005490 3.481690 -1.410180 0
M  V30 15 H 1.356200 4.436280 -1.808230 0
M  V30 16 H 0.672710 3.613480 -0.374450 0
M  V30 17 H 0.144910 3.124400 -1.981610 0
M  V30 18 N 3.813890 0.314450 1.020110 0
M  V30 19 C 4.251610 -0.242470 2.135900 0
M  V30 20 N 5.342320 0.421870 2.585560 0
M  V30 21 C 4.646350 1.380490 0.734420 0
M  V30 22 C 5.606930 1.459470 1.705610 0
M  V30 23 H 3.799780 -1.099130 2.611240 0
M  V30 24 H 5.855880 0.208490 3.427790 0
M  V30 25 H 4.470230 1.994840 -0.138630 0
M  V30 26 H 6.428460 2.142220 1.855440 0
M  V30 27 O -2.583200 0.443220 -0.698550 0
M  V30 28 C -2.502710 1.646340 -1.340940 0
M  V30 29 C -2.369520 1.731450 -2.729710 0
M  V30 30 C -2.325180 2.981620 -3.351680 0
M  V30 31 C -2.415030 4.143050 -2.586070 0
M  V30 32 C -2.538510 4.057120 -1.196240 0
M  V30 33 C -2.576260 2.814610 -0.554250 0
M  V30 34 S -2.707630 2.578250 1.207300 0
M  V30 35 C -2.401510 4.252260 1.858010 0
M  V30 36 H -2.409290 -0.298790 -1.353100 0
M  V30 37 H -2.294670 0.811980 -3.303500 0
M  V30 38 H -2.217130 3.040180 -4.431020 0
M  V30 39 H -2.378580 5.119380 -3.060430 0
M  V30 40 H -2.593420 4.970270 -0.614460 0
M  V30 41 H -2.350590 4.140550 2.943550 0
M  V30 42 H -3.207220 4.946990 1.602400 0
M  V30 43 H -1.436120 4.624900 1.507520 0
M  V30 44 N -0.977650 -1.198840 2.708000 0
M  V30 45 C -2.211130 -1.046850 2.171950 0
M  V30 46 N -3.027410 -2.027830 2.549720 0
M  V30 47 C -2.267180 -2.842540 3.368670 0
M  V30 48 C -0.990520 -2.343390 3.471500 0
M  V30 49 H -0.178340 -0.589080 2.483190 0
M  V30 50 H -2.456040 -0.235940 1.502320 0
M  V30 51 H -2.683570 -3.728070 3.828390 0
M  V30 52 H -0.111020 -2.696920 3.986180 0
M  V30 53 N -4.017210 -3.058770 -0.126700 0
M  V30 54 C -4.659860 -1.902860 -0.338040 0 RAD=2 VAL=3
M  V30 55 N -4.860040 -1.482200 -1.608500 0
M  V30 56 N -5.157590 -1.237930 0.714720 0
M  V30 57 C -5.708210 0.108920 0.620630 0
M  V30 58 H -3.474630 -3.480240 -0.892250 0
M  V30 59 H -3.664510 -3.199180 0.816540 0
M  V30 60 H -4.081630 -1.722000 -2.238630 0
M  V30 61 H -5.148910 -0.518140 -1.709960 0
M  V30 62 H -4.761400 -1.535190 1.613320 0
M  V30 63 H -5.987740 0.428610 1.625410 0
M  V30 64 H -6.611630 0.114490 0.000500 0
M  V30 65 H -4.974160 0.821030 0.227340 0
M  V30 66 S 1.471030 -3.471240 0.834770 0
M  V30 67 C -0.157410 -3.237080 0.047990 0
M  V30 68 C -0.173650 -2.396370 -1.233290 0
M  V30 69 N 0.136720 -0.985930 -0.937440 0
M  V30 70 C -1.558830 -2.590730 -1.929570 0
M  V30 71 O -2.156520 -1.540480 -2.345480 0
M  V30 72 O -2.006640 -3.752680 -1.980940 0 CHG=-1 VAL=1
M  V30 73 H -0.495810 -4.247600 -0.199770 0
M  V30 74 H -0.854970 -2.816830 0.777930 0
M  V30 75 H 0.600480 -2.763520 -1.917020 0
M  V30 76 H -0.602350 -0.568430 -0.367100 0
M  V30 77 H 0.134950 -0.438040 -1.798340 0
M  V30 78 O 2.079660 -1.975130 1.017060 0
M  V30 79 N 0.898740 0.671550 1.603660 0
M  V30 80 C 0.962620 1.773790 2.062140 0
M  V30 81 S 1.062400 3.252000 2.702970 0
M  V30 END ATOM
M  V30 BEGIN BOND
M  V30 1 1 38 30
M  V30 2 1 10 6
M  V30 3 1 30 29
M  V30 4 2 30 31
M  V30 5 1 37 29
M  V30 6 1 6 4
M  V30 7 2 6 5
M  V30 8 1 8 4
M  V30 9 1 39 31
M  V30 10 1 4 3
M  V30 11 2 29 28
M  V30 12 1 31 32
M  V30 13 1 5 9
M  V30 14 1 5 2
M  V30 15 2 71 70
M  V30 16 1 60 55
M  V30 17 1 17 14
M  V30 18 1 72 70
M  V30 19 1 70 68
M  V30 20 1 75 68
M  V30 21 1 15 14
M  V30 22 2 3 2
M  V30 23 1 3 7
M  V30 24 1 77 69
M  V30 25 2 13 12
M  V30 26 1 61 55
M  V30 27 1 55 54
M  V30 28 1 12 14
M  V30 29 1 12 11
M  V30 30 1 14 16
M  V30 31 1 36 27
M  V30 32 1 28 27
M  V30 33 1 28 33
M  V30 34 1 68 69
M  V30 35 1 68 67
M  V30 36 1 32 40
M  V30 37 2 32 33
M  V30 38 1 11 1
M  V30 39 1 69 76
M  V30 40 1 58 53
M  V30 41 1 33 34
M  V30 42 1 54 53
M  V30 43 1 54 56
M  V30 44 1 73 67
M  V30 45 1 25 21
M  V30 46 1 53 59
M  V30 47 1 64 57
M  V30 48 1 67 74
M  V30 49 1 67 66
M  V30 50 1 1 78
M  V30 51 1 1 79
M  V30 52 1 65 57
M  V30 53 1 57 56
M  V30 54 1 57 63
M  V30 55 1 56 62
M  V30 56 1 21 18
M  V30 57 2 21 22
M  V30 58 1 66 78
M  V30 59 2 18 19
M  V30 60 1 34 35
M  V30 61 1 50 45
M  V30 62 1 43 35
M  V30 63 1 42 35
M  V30 64 2 79 80
M  V30 65 1 22 26
M  V30 66 1 22 20
M  V30 67 1 35 41
M  V30 68 2 80 81
M  V30 69 1 19 20
M  V30 70 1 19 23
M  V30 71 2 45 46
M  V30 72 1 45 44
M  V30 73 1 49 44
M  V30 74 1 46 47
M  V30 75 1 20 24
M  V30 76 1 44 48
M  V30 77 2 47 48
M  V30 78 1 47 51
M  V30 79 1 48 52
M  V30 80 9 2 1
M  V30 81 9 18 1
M  V30 82 9 69 1
M  V30 END BOND
M  V30 END CTAB
M  END
