
     RDKit          3D

  0  0  0  0  0  0  0  0  0  0999 V3000
M  V30 BEGIN CTAB
M  V30 COUNTS 79 80 0 0 0
M  V30 BEGIN ATOM
M  V30 1 Fe -2.346790 -0.272710 -0.141850 0 CHG=1 VAL=6
M  V30 2 N -3.421420 0.495270 1.649200 0
M  V30 3 C -3.777460 -0.302930 2.642640 0
M  V30 4 N -4.367580 0.412890 3.631230 0
M  V30 5 C -3.804350 1.776000 2.003820 0
M  V30 6 C -4.395840 1.740930 3.238130 0
M  V30 7 H -3.631840 -1.371560 2.663810 0
M  V30 8 H -4.731350 0.036850 4.494580 0
M  V30 9 H -3.642210 2.598350 1.321040 0
M  V30 10 H -4.827380 2.512390 3.856760 0
M  V30 11 O -1.518530 1.522950 -0.535030 0
M  V30 12 C -1.877440 2.760180 -0.672220 0
M  V30 13 O -3.042570 3.184870 -0.610700 0
M  V30 14 C -0.723970 3.727730 -0.908800 0
M  V30 15 H -1.094210 4.752320 -0.981510 0
M  V30 16 H -0.196580 3.460430 -1.829230 0
M  V30 17 H 0.005230 3.651370 -0.096040 0
M  V30 18 N -4.094490 -0.134250 -1.350330 0
M  V30 19 C -4.586990 -1.195170 -1.965640 0
M  V30 20 N -5.624160 -0.829510 -2.753470 0
M  V30 21 C -4.832890 0.961860 -1.754840 0
M  V30 22 C -5.794270 0.542520 -2.633050 0
M  V30 23 H -4.199550 -2.196850 -1.866270 0
M  V30 24 H -6.160970 -1.448780 -3.342490 0
M  V30 25 H -4.568400 1.946730 -1.393410 0
M  V30 26 H -6.560270 1.073650 -3.176030 0
M  V30 27 O 2.198280 0.705260 0.256300 0
M  V30 28 C 2.394900 2.046700 0.274590 0
M  V30 29 C 2.269920 2.781940 1.463480 0
M  V30 30 C 2.507820 4.157310 1.463950 0
M  V30 31 C 2.867290 4.811750 0.284780 0
M  V30 32 C 2.976210 4.080470 -0.900040 0
M  V30 33 C 2.746020 2.699840 -0.927600 0
M  V30 34 S 2.974950 1.778810 -2.441920 0
M  V30 35 C 1.270480 1.162420 -2.778010 0
M  V30 36 H 1.996520 0.379630 1.183520 0
M  V30 37 H 1.977750 2.261460 2.371540 0
M  V30 38 H 2.404930 4.715170 2.390970 0
M  V30 39 H 3.047070 5.882670 0.281140 0
M  V30 40 H 3.236080 4.579050 -1.829090 0
M  V30 41 H 1.356250 0.197640 -3.281590 0
M  V30 42 H 0.732620 1.861820 -3.422480 0
M  V30 43 H 0.710280 1.022030 -1.853520 0
M  V30 44 N 1.858490 -2.632620 -2.094620 0
M  V30 45 C 2.833720 -1.913560 -1.491760 0
M  V30 46 N 3.970030 -2.602190 -1.426980 0
M  V30 47 C 3.698960 -3.820010 -2.021390 0
M  V30 48 C 2.391290 -3.855940 -2.439540 0
M  V30 49 H 0.889060 -2.311640 -2.209820 0
M  V30 50 H 2.682280 -0.910400 -1.118210 0
M  V30 51 H 4.456380 -4.586420 -2.110130 0
M  V30 52 H 1.806670 -4.615400 -2.935470 0
M  V30 53 N 4.171260 -2.135270 1.581550 0
M  V30 54 C 4.660570 -0.911140 1.348980 0 RAD=2 VAL=3
M  V30 55 N 4.492370 0.053640 2.284870 0
M  V30 56 N 5.375380 -0.695520 0.236040 0
M  V30 57 C 5.869670 0.618140 -0.151370 0
M  V30 58 H 3.433400 -2.274340 2.289230 0
M  V30 59 H 4.151410 -2.763120 0.783770 0
M  V30 60 H 3.621650 -0.060580 2.821500 0
M  V30 61 H 4.623900 1.006330 1.968070 0
M  V30 62 H 5.227290 -1.399860 -0.500250 0
M  V30 63 H 6.392070 0.513310 -1.103170 0
M  V30 64 H 6.581790 0.995630 0.591160 0
M  V30 65 H 5.058510 1.342230 -0.288820 0
M  V30 66 S -2.145650 -3.342760 1.016660 0
M  V30 67 C -0.398440 -2.844850 1.225560 0
M  V30 68 C -0.214260 -1.527530 1.982670 0
M  V30 69 N -0.532470 -0.393930 1.097050 0
M  V30 70 C 1.218950 -1.429200 2.592780 0
M  V30 71 O 1.725540 -0.253890 2.640960 0
M  V30 72 O 1.766050 -2.479720 2.973920 0 CHG=-1 VAL=1
M  V30 73 H 0.062340 -3.655930 1.797170 0
M  V30 74 H 0.077560 -2.785060 0.241490 0
M  V30 75 H -0.919310 -1.489720 2.823370 0
M  V30 76 H 0.171570 -0.304500 0.361620 0
M  V30 77 H -0.479700 0.482950 1.613800 0
M  V30 78 O -2.908730 -2.063240 0.425830 0
M  V30 79 Cl -1.076160 -1.358130 -2.028220 0
M  V30 END ATOM
M  V30 BEGIN BOND
M  V30 1 1 42 35
M  V30 2 1 24 20
M  V30 3 1 41 35
M  V30 4 1 26 22
M  V30 5 1 52 48
M  V30 6 1 35 34
M  V30 7 1 35 43
M  V30 8 1 20 22
M  V30 9 1 20 19
M  V30 10 2 22 21
M  V30 11 1 34 33
M  V30 12 1 48 44
M  V30 13 2 48 47
M  V30 14 1 49 44
M  V30 15 1 51 47
M  V30 16 1 44 45
M  V30 17 1 79 1
M  V30 18 1 47 46
M  V30 19 1 19 23
M  V30 20 2 19 18
M  V30 21 1 16 14
M  V30 22 1 40 32
M  V30 23 1 21 25
M  V30 24 1 21 18
M  V30 25 2 45 46
M  V30 26 1 45 50
M  V30 27 1 63 57
M  V30 28 1 15 14
M  V30 29 1 33 32
M  V30 30 2 33 28
M  V30 31 1 14 12
M  V30 32 1 14 17
M  V30 33 2 32 31
M  V30 34 2 12 13
M  V30 35 1 12 11
M  V30 36 1 11 1
M  V30 37 1 62 56
M  V30 38 1 65 57
M  V30 39 1 57 56
M  V30 40 1 57 64
M  V30 41 1 1 78
M  V30 42 1 56 54
M  V30 43 1 74 67
M  V30 44 1 27 28
M  V30 45 1 27 36
M  V30 46 1 28 29
M  V30 47 1 39 31
M  V30 48 1 31 30
M  V30 49 1 76 69
M  V30 50 1 78 66
M  V30 51 1 59 53
M  V30 52 1 66 67
M  V30 53 1 69 77
M  V30 54 1 69 68
M  V30 55 1 67 73
M  V30 56 1 67 68
M  V30 57 1 9 5
M  V30 58 1 54 53
M  V30 59 1 54 55
M  V30 60 2 29 30
M  V30 61 1 29 37
M  V30 62 1 30 38
M  V30 63 1 53 58
M  V30 64 1 2 5
M  V30 65 2 2 3
M  V30 66 1 61 55
M  V30 67 1 68 70
M  V30 68 1 68 75
M  V30 69 2 5 6
M  V30 70 1 55 60
M  V30 71 2 70 71
M  V30 72 1 70 72
M  V30 73 1 3 7
M  V30 74 1 3 4
M  V30 75 1 6 4
M  V30 76 1 6 10
M  V30 77 1 4 8
M  V30 78 9 2 1
M  V30 79 9 18 1
M  V30 80 9 69 1
M  V30 END BOND
M  V30 END CTAB
M  END
