
     RDKit          3D

  0  0  0  0  0  0  0  0  0  0999 V3000
M  V30 BEGIN CTAB
M  V30 COUNTS 35 37 0 0 0
M  V30 BEGIN ATOM
M  V30 1 Fe 0.016000 -0.454360 -0.712730 0 VAL=6
M  V30 2 N 0.786260 1.529270 -0.279390 0
M  V30 3 C 2.073080 1.806660 -0.164750 0
M  V30 4 N 2.240650 3.141270 0.008350 0
M  V30 5 C 0.992200 3.740810 -0.008390 0
M  V30 6 C 0.099290 2.719470 -0.190750 0
M  V30 7 H 2.865120 1.071400 -0.225750 0
M  V30 8 H 3.127760 3.612070 0.109470 0
M  V30 9 H 0.865050 4.806700 0.099240 0
M  V30 10 H -0.973850 2.740820 -0.294000 0
M  V30 11 N -1.103910 -0.204500 1.291500 0
M  V30 12 C -2.214960 0.476690 1.502080 0
M  V30 13 N -2.571280 0.410990 2.811540 0
M  V30 14 C -1.628900 -0.360440 3.469440 0
M  V30 15 C -0.726510 -0.731900 2.508370 0
M  V30 16 H -2.767550 1.004680 0.740380 0
M  V30 17 H -3.385240 0.840890 3.225540 0
M  V30 18 H -1.692800 -0.567070 4.526510 0
M  V30 19 H 0.161460 -1.339290 2.578160 0
M  V30 20 O -1.624520 -1.593040 -1.307290 0
M  V30 21 C -2.295850 -0.571050 -1.664790 0
M  V30 22 O -1.835250 0.593120 -1.450310 0
M  V30 23 C -3.620260 -0.764130 -2.363530 0
M  V30 24 H -4.211560 0.153780 -2.332210 0
M  V30 25 H -4.168220 -1.594930 -1.910550 0
M  V30 26 H -3.427610 -1.023680 -3.410920 0
M  V30 27 C 2.521700 -1.687310 0.267860 0
M  V30 28 O 1.253240 -1.476490 0.460620 0
M  V30 29 C 3.109060 -2.775900 1.154240 0
M  V30 30 H 2.973180 -2.507580 2.208210 0
M  V30 31 H 4.170600 -2.915190 0.941680 0
M  V30 32 H 2.567120 -3.712730 0.986190 0
M  V30 33 O 3.234480 -1.074890 -0.542720 0
M  V30 34 O 0.999390 -0.609350 -2.233840 0
M  V30 35 H 1.946470 -0.728070 -2.005660 0
M  V30 END ATOM
M  V30 BEGIN BOND
M  V30 1 1 26 23
M  V30 2 1 23 24
M  V30 3 1 23 25
M  V30 4 1 23 21
M  V30 5 1 34 35
M  V30 6 1 34 1
M  V30 7 2 21 22
M  V30 8 1 21 20
M  V30 9 1 20 1
M  V30 10 1 1 28
M  V30 11 2 33 27
M  V30 12 1 10 6
M  V30 13 1 2 6
M  V30 14 2 2 3
M  V30 15 1 7 3
M  V30 16 2 6 5
M  V30 17 1 3 4
M  V30 18 1 5 4
M  V30 19 1 5 9
M  V30 20 1 4 8
M  V30 21 1 27 28
M  V30 22 1 27 29
M  V30 23 1 16 12
M  V30 24 1 31 29
M  V30 25 1 32 29
M  V30 26 1 29 30
M  V30 27 2 11 12
M  V30 28 1 11 15
M  V30 29 1 12 13
M  V30 30 1 15 19
M  V30 31 2 15 14
M  V30 32 1 13 17
M  V30 33 1 13 14
M  V30 34 1 14 18
M  V30 35 9 2 1
M  V30 36 9 11 1
M  V30 37 9 22 1
M  V30 END BOND
M  V30 END CTAB
M  END
