
     RDKit          3D

  0  0  0  0  0  0  0  0  0  0999 V3000
M  V30 BEGIN CTAB
M  V30 COUNTS 81 83 0 0 0
M  V30 BEGIN ATOM
M  V30 1 C -6.000250 0.548900 0.614600 0
M  V30 2 H -6.725130 -0.068360 0.080890 0
M  V30 3 H -6.546570 1.173830 1.329490 0
M  V30 4 N -5.316910 1.383210 -0.361260 0
M  V30 5 H -5.149900 0.996080 -1.300250 0
M  V30 6 C -4.403080 2.308070 -0.022230 0 RAD=2 VAL=3
M  V30 7 N -4.131740 2.603430 1.271700 0
M  V30 8 H -3.175400 2.972030 1.401260 0
M  V30 9 H -4.337640 1.865330 1.934630 0
M  V30 10 N -3.809430 3.011840 -0.989820 0
M  V30 11 H -2.924260 3.522350 -0.800700 0
M  V30 12 H -3.967960 2.693830 -1.940770 0
M  V30 13 N 4.269680 2.879350 2.358710 0
M  V30 14 H 4.784940 3.747240 2.341490 0
M  V30 15 C 3.278140 2.532390 3.259290 0
M  V30 16 C 4.329980 1.909350 1.409450 0
M  V30 17 H 4.949050 1.949620 0.527190 0
M  V30 18 N 3.455090 0.950970 1.660770 0
M  V30 19 C 2.790390 1.332430 2.811150 0
M  V30 20 H 2.003270 0.722080 3.229920 0
M  V30 21 N 1.243680 -2.606730 3.005680 0
M  V30 22 H 1.399530 -3.024530 3.911080 0
M  V30 23 C 0.063520 -2.642210 2.282200 0
M  V30 24 C 2.159810 -1.915680 2.273990 0
M  V30 25 H 3.170630 -1.716730 2.595880 0
M  V30 26 N 1.630730 -1.509760 1.135320 0
M  V30 27 C 0.325460 -1.963880 1.121560 0
M  V30 28 H -0.315820 -1.775760 0.274230 0
M  V30 29 C -4.132300 -3.814190 -0.152600 0
M  V30 30 H -3.462060 -4.508040 0.364250 0
M  V30 31 H -4.264510 -4.154410 -1.182990 0
M  V30 32 S -3.407120 -2.147020 -0.279460 0
M  V30 33 N 5.638420 -2.874190 -1.488400 0
M  V30 34 H 6.000350 -3.529560 -2.165320 0
M  V30 35 C 6.287250 -2.431510 -0.348350 0
M  V30 36 C 4.432100 -2.252930 -1.555700 0
M  V30 37 H 3.699140 -2.392700 -2.338200 0
M  V30 38 N 4.275730 -1.446020 -0.523490 0
M  V30 39 C 5.422710 -1.544010 0.235780 0
M  V30 40 H 5.537900 -0.956850 1.134900 0
M  V30 41 N -2.112200 -0.627710 -3.167590 0
M  V30 42 H -1.133720 -0.924400 -3.057170 0
M  V30 43 C -3.114680 -1.266950 -3.860040 0
M  V30 44 C -2.661100 0.437500 -2.547670 0
M  V30 45 H -2.090580 1.100910 -1.916720 0
M  V30 46 N -3.960850 0.541900 -2.807410 0
M  V30 47 C -4.250770 -0.527790 -3.631550 0
M  V30 48 H -5.250260 -0.694540 -4.009210 0
M  V30 49 C -3.382030 -2.007420 3.842260 0
M  V30 50 C -3.593080 -2.467800 2.535870 0
M  V30 51 H -4.072380 -3.429560 2.388390 0
M  V30 52 C -3.197190 -1.703440 1.432690 0
M  V30 53 C -2.579580 -0.450190 1.660780 0
M  V30 54 O -2.204090 0.255020 0.573390 0
M  V30 55 H -1.835050 1.152630 0.845100 0
M  V30 56 C -2.778590 -0.768820 4.055340 0
M  V30 57 H -2.614910 -0.403820 5.065710 0
M  V30 58 C -2.379050 0.011590 2.966830 0
M  V30 59 H -1.887870 0.971190 3.104650 0
M  V30 60 N 0.748620 1.121930 0.101040 0
M  V30 61 H 0.410140 0.893120 1.033710 0
M  V30 62 C 0.714690 2.593210 -0.064540 0
M  V30 63 H 1.345810 3.010380 0.730070 0
M  V30 64 C 1.293890 2.976580 -1.426780 0
M  V30 65 H 0.856860 2.342980 -2.209110 0
M  V30 66 H 1.030280 4.014330 -1.654600 0
M  V30 67 S 3.116870 2.906950 -1.543480 0
M  V30 68 C -0.728270 3.117370 0.161460 0
M  V30 69 O -1.335930 2.623990 1.187060 0 CHG=-1 VAL=1
M  V30 70 O -1.227990 3.923210 -0.646920 0
M  V30 71 H 0.093200 0.682370 -0.548530 0
M  V30 72 Fe 2.607110 -0.037700 -0.334640 0 CHG=1 VAL=6
M  V30 73 O 3.518260 1.319980 -1.340840 0
M  V30 74 H -5.317830 -0.117450 1.156080 0
M  V30 75 H 3.025860 3.152100 4.105950 0
M  V30 76 H -0.836590 -3.098930 2.662640 0
M  V30 77 H -5.108350 -3.802730 0.343030 0
M  V30 78 H 7.272340 -2.777990 -0.076240 0
M  V30 79 H -2.928530 -2.155800 -4.443000 0
M  V30 80 H -3.700720 -2.617600 4.682760 0
M  V30 81 Br 1.086300 -1.343710 -2.331530 0
M  V30 END ATOM
M  V30 BEGIN BOND
M  V30 1 1 79 43
M  V30 2 1 48 47
M  V30 3 2 43 47
M  V30 4 1 43 41
M  V30 5 1 47 46
M  V30 6 1 41 42
M  V30 7 1 41 44
M  V30 8 2 46 44
M  V30 9 1 44 45
M  V30 10 1 37 36
M  V30 11 1 81 72
M  V30 12 1 65 64
M  V30 13 1 34 33
M  V30 14 1 12 10
M  V30 15 1 66 64
M  V30 16 1 36 33
M  V30 17 2 36 38
M  V30 18 1 67 64
M  V30 19 1 67 73
M  V30 20 1 33 35
M  V30 21 1 64 62
M  V30 22 1 73 72
M  V30 23 1 5 4
M  V30 24 1 31 29
M  V30 25 1 10 11
M  V30 26 1 10 6
M  V30 27 2 70 68
M  V30 28 1 71 60
M  V30 29 1 38 39
M  V30 30 1 4 6
M  V30 31 1 4 1
M  V30 32 1 35 78
M  V30 33 2 35 39
M  V30 34 1 32 29
M  V30 35 1 32 52
M  V30 36 1 29 77
M  V30 37 1 29 30
M  V30 38 1 62 60
M  V30 39 1 62 68
M  V30 40 1 62 63
M  V30 41 1 6 7
M  V30 42 1 2 1
M  V30 43 1 60 61
M  V30 44 1 68 69
M  V30 45 1 39 40
M  V30 46 1 28 27
M  V30 47 1 17 16
M  V30 48 1 54 55
M  V30 49 1 54 53
M  V30 50 1 1 74
M  V30 51 1 1 3
M  V30 52 1 27 26
M  V30 53 2 27 23
M  V30 54 2 26 24
M  V30 55 1 7 8
M  V30 56 1 7 9
M  V30 57 2 16 18
M  V30 58 1 16 13
M  V30 59 2 52 53
M  V30 60 1 52 50
M  V30 61 1 18 19
M  V30 62 1 53 58
M  V30 63 1 24 25
M  V30 64 1 24 21
M  V30 65 1 23 76
M  V30 66 1 23 21
M  V30 67 1 14 13
M  V30 68 1 13 15
M  V30 69 1 51 50
M  V30 70 2 50 49
M  V30 71 1 19 20
M  V30 72 2 19 15
M  V30 73 1 58 59
M  V30 74 2 58 56
M  V30 75 1 21 22
M  V30 76 1 15 75
M  V30 77 1 49 56
M  V30 78 1 49 80
M  V30 79 1 56 57
M  V30 80 9 18 72
M  V30 81 9 26 72
M  V30 82 9 38 72
M  V30 83 9 60 72
M  V30 END BOND
M  V30 END CTAB
M  END
