
     RDKit          3D

  0  0  0  0  0  0  0  0  0  0999 V3000
M  V30 BEGIN CTAB
M  V30 COUNTS 83 85 0 0 0
M  V30 BEGIN ATOM
M  V30 1 C -5.413920 -0.290050 1.198430 0
M  V30 2 H -5.843680 0.188150 2.080530 0
M  V30 3 H -6.231680 -0.564570 0.526000 0
M  V30 4 N -4.693690 -1.479880 1.636690 0
M  V30 5 H -4.192570 -1.407990 2.533140 0
M  V30 6 C -4.154840 -2.350190 0.773540 0 RAD=2 VAL=3
M  V30 7 N -4.406060 -2.300640 -0.544170 0
M  V30 8 H -3.784710 -2.878480 -1.127230 0
M  V30 9 H -4.683570 -1.414410 -0.952050 0
M  V30 10 N -3.401660 -3.366300 1.244240 0
M  V30 11 H -2.759040 -3.776790 0.556030 0
M  V30 12 H -3.074090 -3.286280 2.197860 0
M  V30 13 N 4.213400 -3.728390 -1.255410 0
M  V30 14 H 4.595140 -4.636160 -1.033120 0
M  V30 15 C 3.715360 -3.328600 -2.483880 0
M  V30 16 C 4.011290 -2.715210 -0.373990 0
M  V30 17 H 4.263200 -2.763670 0.673500 0
M  V30 18 N 3.432480 -1.688000 -0.969510 0
M  V30 19 C 3.239610 -2.059500 -2.285870 0
M  V30 20 H 2.766360 -1.385130 -2.983470 0
M  V30 21 N 3.197790 2.568980 -3.151830 0
M  V30 22 H 3.873320 3.098240 -3.683000 0
M  V30 23 C 1.828530 2.774280 -3.135880 0
M  V30 24 C 3.475020 1.556920 -2.288190 0
M  V30 25 H 4.471450 1.198900 -2.076620 0
M  V30 26 N 2.366580 1.104670 -1.732140 0
M  V30 27 C 1.328510 1.859890 -2.249080 0
M  V30 28 H 0.306650 1.711520 -1.932700 0
M  V30 29 C -2.816030 4.236500 0.637400 0
M  V30 30 H -3.312390 4.978250 0.003770 0
M  V30 31 H -1.980640 4.705980 1.163280 0
M  V30 32 S -2.048400 2.904390 -0.337860 0
M  V30 33 N 5.510020 2.138660 1.915360 0
M  V30 34 H 5.816700 2.901720 2.501300 0
M  V30 35 C 6.318430 1.269480 1.206480 0
M  V30 36 C 4.216410 1.796800 1.683200 0
M  V30 37 H 3.371230 2.323370 2.098660 0
M  V30 38 N 4.151560 0.758800 0.867940 0
M  V30 39 C 5.455720 0.419950 0.564610 0
M  V30 40 H 5.671730 -0.409480 -0.091530 0
M  V30 41 N -0.559570 -0.375940 2.930690 0
M  V30 42 H 0.412290 -0.536070 2.596470 0
M  V30 43 C -1.306300 0.772640 2.806130 0
M  V30 44 C -1.388770 -1.344410 3.399450 0
M  V30 45 H -1.037820 -2.349610 3.591300 0
M  V30 46 N -2.626030 -0.895340 3.585660 0
M  V30 47 C -2.571970 0.439580 3.220790 0
M  V30 48 H -3.445280 1.075640 3.276360 0
M  V30 49 C -5.808140 1.836420 -1.651940 0
M  V30 50 C -4.782760 2.547790 -1.016350 0
M  V30 51 H -5.032980 3.432110 -0.440080 0
M  V30 52 C -3.449670 2.129320 -1.109230 0
M  V30 53 C -3.152680 0.975600 -1.874340 0
M  V30 54 O -1.854330 0.612400 -1.963770 0
M  V30 55 H -1.769780 -0.344760 -2.268940 0
M  V30 56 C -5.507310 0.696780 -2.397440 0
M  V30 57 H -6.295200 0.144640 -2.903070 0
M  V30 58 C -4.178950 0.268040 -2.512330 0
M  V30 59 H -3.910980 -0.609280 -3.095620 0
M  V30 60 N 0.354010 -1.014420 -0.818680 0
M  V30 61 H 0.368860 -0.722540 -1.794770 0
M  V30 62 C -0.016090 -2.445930 -0.788760 0
M  V30 63 H 0.773950 -2.990380 -1.321220 0
M  V30 64 C -0.094460 -2.954420 0.649800 0
M  V30 65 H -0.877380 -2.398020 1.173640 0
M  V30 66 H -0.388130 -4.008780 0.631760 0
M  V30 67 S 1.424600 -2.920200 1.659780 0
M  V30 68 C -1.366770 -2.714210 -1.534150 0
M  V30 69 O -1.691220 -1.917240 -2.459310 0
M  V30 70 O -2.054150 -3.706390 -1.161340 0 CHG=-1 VAL=1
M  V30 71 H -0.394790 -0.457310 -0.401670 0
M  V30 72 Fe 2.207580 -0.181430 0.184170 0 CHG=1 VAL=6
M  V30 73 O 1.811930 -1.311080 1.768700 0
M  V30 74 H -4.760470 0.427620 0.689870 0
M  V30 75 H 3.750430 -3.966110 -3.353660 0
M  V30 76 H 1.353670 3.539260 -3.729870 0
M  V30 77 H -3.525590 3.837680 1.369920 0
M  V30 78 H 7.395330 1.334620 1.230720 0
M  V30 79 H -0.886950 1.689750 2.431070 0
M  V30 80 H -6.834410 2.182050 -1.564610 0
M  V30 81 N 1.192550 1.543720 0.932850 0
M  V30 82 C 1.090950 2.693620 1.195120 0
M  V30 83 S 0.973200 4.274800 1.607580 0
M  V30 END ATOM
M  V30 BEGIN BOND
M  V30 1 1 76 23
M  V30 2 1 22 21
M  V30 3 1 75 15
M  V30 4 1 21 23
M  V30 5 1 21 24
M  V30 6 2 23 27
M  V30 7 1 59 58
M  V30 8 1 20 19
M  V30 9 1 57 56
M  V30 10 1 58 56
M  V30 11 2 58 53
M  V30 12 2 15 19
M  V30 13 1 15 13
M  V30 14 2 69 68
M  V30 15 2 56 49
M  V30 16 1 24 25
M  V30 17 2 24 26
M  V30 18 1 19 18
M  V30 19 1 55 54
M  V30 20 1 27 28
M  V30 21 1 27 26
M  V30 22 1 54 53
M  V30 23 1 53 52
M  V30 24 1 61 60
M  V30 25 1 49 80
M  V30 26 1 49 50
M  V30 27 1 68 70
M  V30 28 1 68 62
M  V30 29 1 63 62
M  V30 30 1 13 14
M  V30 31 1 13 16
M  V30 32 1 8 7
M  V30 33 2 52 50
M  V30 34 1 52 32
M  V30 35 1 50 51
M  V30 36 2 18 16
M  V30 37 1 9 7
M  V30 38 1 60 62
M  V30 39 1 60 71
M  V30 40 1 62 64
M  V30 41 1 7 6
M  V30 42 1 16 17
M  V30 43 1 32 29
M  V30 44 1 40 39
M  V30 45 1 30 29
M  V30 46 1 72 81
M  V30 47 1 72 73
M  V30 48 1 3 1
M  V30 49 1 11 10
M  V30 50 1 39 38
M  V30 51 2 39 35
M  V30 52 1 66 64
M  V30 53 1 29 31
M  V30 54 1 29 77
M  V30 55 1 64 65
M  V30 56 1 64 67
M  V30 57 1 74 1
M  V30 58 1 6 10
M  V30 59 1 6 4
M  V30 60 2 38 36
M  V30 61 2 81 82
M  V30 62 2 82 83
M  V30 63 1 1 4
M  V30 64 1 1 2
M  V30 65 1 35 78
M  V30 66 1 35 33
M  V30 67 1 10 12
M  V30 68 1 4 5
M  V30 69 1 67 73
M  V30 70 1 36 33
M  V30 71 1 36 37
M  V30 72 1 33 34
M  V30 73 1 79 43
M  V30 74 1 42 41
M  V30 75 1 43 41
M  V30 76 2 43 47
M  V30 77 1 41 44
M  V30 78 1 47 48
M  V30 79 1 47 46
M  V30 80 2 44 46
M  V30 81 1 44 45
M  V30 82 9 18 72
M  V30 83 9 26 72
M  V30 84 9 38 72
M  V30 85 9 60 72
M  V30 END BOND
M  V30 END CTAB
M  END
