
     RDKit          3D

  0  0  0  0  0  0  0  0  0  0999 V3000
M  V30 BEGIN CTAB
M  V30 COUNTS 75 76 0 0 0
M  V30 BEGIN ATOM
M  V30 1 Fe -0.464480 -0.362200 0.381460 0 VAL=4
M  V30 2 O 2.933520 -2.218140 1.711110 0
M  V30 3 O 0.347180 3.133000 1.741650 0
M  V30 4 O -4.233830 -1.323740 0.727550 0
M  V30 5 N -1.027600 -0.353950 2.836120 0
M  V30 6 N 1.351500 -0.636610 1.311570 0 RAD=2 VAL=2
M  V30 7 N -0.913110 1.483330 0.704560 0
M  V30 8 N -1.935660 -1.578220 0.511700 0
M  V30 9 N 2.985690 -1.082740 -0.302780 0
M  V30 10 N 0.914390 2.409070 -0.364800 0
M  V30 11 N -3.172810 -0.623740 -1.188900 0
M  V30 12 C 0.237980 -0.680770 3.479790 0
M  V30 13 C 1.413310 -0.106760 2.660630 0
M  V30 14 C 2.506390 -1.383090 0.913550 0
M  V30 15 C 4.032190 -1.864100 -1.013000 0
M  V30 16 C 4.254330 -1.152060 -2.355350 0
M  V30 17 C 3.526910 -3.299760 -1.244200 0
M  V30 18 C 5.328070 -1.856770 -0.187200 0
M  V30 19 C -1.492900 1.028660 3.057420 0
M  V30 20 C -1.948570 1.647430 1.723680 0
M  V30 21 C 0.132200 2.416040 0.753180 0
M  V30 22 C 2.187650 3.137980 -0.524160 0
M  V30 23 C 1.948780 4.656160 -0.431160 0
M  V30 24 C 3.188790 2.680710 0.554170 0
M  V30 25 C 2.723150 2.773360 -1.917280 0
M  V30 26 C -2.074260 -1.390040 2.940970 0
M  V30 27 C -1.949740 -2.351610 1.752950 0
M  V30 28 C -3.208450 -1.190530 0.050150 0
M  V30 29 C -4.308050 0.041640 -1.855320 0
M  V30 30 C -5.435290 -0.971670 -2.128310 0
M  V30 31 C -4.818700 1.197260 -0.975050 0
M  V30 32 C -3.761160 0.598610 -3.178520 0
M  V30 33 H 2.359440 -0.537530 -0.889210 0
M  V30 34 H 0.576630 1.865690 -1.150350 0
M  V30 35 H -2.315520 -0.731090 -1.718230 0
M  V30 36 H 0.352660 -1.767470 3.516700 0
M  V30 37 H 0.297710 -0.293060 4.508480 0
M  V30 38 H 1.300010 0.984100 2.585400 0
M  V30 39 H 2.368270 -0.340280 3.137410 0
M  V30 40 H 3.331890 -1.126610 -2.946680 0
M  V30 41 H 5.016400 -1.683690 -2.933550 0
M  V30 42 H 4.598490 -0.123020 -2.200170 0
M  V30 43 H 3.341770 -3.798260 -0.288740 0
M  V30 44 H 4.275370 -3.876600 -1.798870 0
M  V30 45 H 2.596910 -3.287310 -1.822640 0
M  V30 46 H 5.666440 -0.828930 -0.015490 0
M  V30 47 H 6.112950 -2.392660 -0.731890 0
M  V30 48 H 5.179640 -2.342700 0.779730 0
M  V30 49 H -0.665590 1.630950 3.435940 0
M  V30 50 H -2.302340 1.054120 3.800500 0
M  V30 51 H -2.853870 1.147700 1.366800 0
M  V30 52 H -2.173530 2.708130 1.878830 0
M  V30 53 H 1.248100 4.979140 -1.209320 0
M  V30 54 H 2.892170 5.197440 -0.569000 0
M  V30 55 H 1.529970 4.912960 0.544050 0
M  V30 56 H 2.803970 2.910480 1.550680 0
M  V30 57 H 4.147190 3.196010 0.423990 0
M  V30 58 H 3.364790 1.601460 0.477950 0
M  V30 59 H 2.886810 1.693830 -2.009900 0
M  V30 60 H 3.676320 3.281030 -2.095840 0
M  V30 61 H 2.022010 3.079230 -2.702740 0
M  V30 62 H -3.050180 -0.907900 2.868590 0
M  V30 63 H -2.018830 -1.918760 3.903950 0
M  V30 64 H -1.010990 -2.915950 1.810960 0
M  V30 65 H -2.784570 -3.059950 1.756260 0
M  V30 66 H -5.792750 -1.398910 -1.188840 0
M  V30 67 H -5.071090 -1.784140 -2.767290 0
M  V30 68 H -6.271950 -0.479720 -2.638290 0
M  V30 69 H -4.010980 1.913800 -0.787320 0
M  V30 70 H -5.183770 0.816470 -0.018240 0
M  V30 71 H -5.638640 1.721240 -1.479140 0
M  V30 72 H -3.380780 -0.206370 -3.818760 0
M  V30 73 H -2.944760 1.307250 -2.997610 0
M  V30 74 H -4.556330 1.118160 -3.722650 0
M  V30 75 Br 0.213410 -0.558120 -2.120570 0
M  V30 END ATOM
M  V30 BEGIN BOND
M  V30 1 1 72 32
M  V30 2 1 74 32
M  V30 3 1 32 73
M  V30 4 1 32 29
M  V30 5 1 40 16
M  V30 6 1 41 16
M  V30 7 1 67 30
M  V30 8 1 61 25
M  V30 9 1 68 30
M  V30 10 1 16 42
M  V30 11 1 16 15
M  V30 12 1 30 29
M  V30 13 1 30 66
M  V30 14 1 75 1
M  V30 15 1 60 25
M  V30 16 1 59 25
M  V30 17 1 25 22
M  V30 18 1 29 11
M  V30 19 1 29 31
M  V30 20 1 45 17
M  V30 21 1 44 17
M  V30 22 1 35 11
M  V30 23 1 71 31
M  V30 24 1 17 15
M  V30 25 1 17 43
M  V30 26 1 53 23
M  V30 27 1 11 28
M  V30 28 1 34 10
M  V30 29 1 15 9
M  V30 30 1 15 18
M  V30 31 1 31 69
M  V30 32 1 31 70
M  V30 33 1 33 9
M  V30 34 1 47 18
M  V30 35 1 54 23
M  V30 36 1 22 23
M  V30 37 1 22 10
M  V30 38 1 22 24
M  V30 39 1 23 55
M  V30 40 1 10 21
M  V30 41 1 9 14
M  V30 42 1 18 46
M  V30 43 1 18 48
M  V30 44 1 28 8
M  V30 45 2 28 4
M  V30 46 1 1 8
M  V30 47 1 1 7
M  V30 48 1 57 24
M  V30 49 1 58 24
M  V30 50 1 8 27
M  V30 51 1 24 56
M  V30 52 1 7 21
M  V30 53 1 7 20
M  V30 54 2 21 3
M  V30 55 1 14 6
M  V30 56 2 14 2
M  V30 57 1 6 13
M  V30 58 1 51 20
M  V30 59 1 20 52
M  V30 60 1 20 19
M  V30 61 1 27 65
M  V30 62 1 27 64
M  V30 63 1 27 26
M  V30 64 1 38 13
M  V30 65 1 13 39
M  V30 66 1 13 12
M  V30 67 1 5 26
M  V30 68 1 5 19
M  V30 69 1 5 12
M  V30 70 1 62 26
M  V30 71 1 26 63
M  V30 72 1 19 49
M  V30 73 1 19 50
M  V30 74 1 12 36
M  V30 75 1 12 37
M  V30 76 9 5 1
M  V30 END BOND
M  V30 END CTAB
M  END
