
     RDKit          3D

  0  0  0  0  0  0  0  0  0  0999 V3000
M  V30 BEGIN CTAB
M  V30 COUNTS 77 77 0 0 0
M  V30 BEGIN ATOM
M  V30 1 Fe 0.307350 0.107190 -0.658700 0 CHG=1 RAD=2 VAL=3
M  V30 2 O -3.643900 0.222200 -2.052000 0 CHG=-1 VAL=1
M  V30 3 O -0.414400 3.233700 1.379600 0
M  V30 4 O 4.104400 -1.189200 -1.475300 0
M  V30 5 N 0.882900 1.922000 -2.163400 0
M  V30 6 N -1.449700 0.539600 -1.379700 0
M  V30 7 N 0.892300 1.458000 0.634900 0 RAD=2 VAL=2
M  V30 8 N 1.907200 -0.481400 -1.449200 0 RAD=2 VAL=2
M  V30 9 N -2.714600 -1.259200 -0.571400 0
M  V30 10 N -0.893300 1.084300 2.048300 0
M  V30 11 N 3.073500 -0.772000 0.538700 0
M  V30 12 C -0.387900 2.149700 -2.854900 0
M  V30 13 C -1.548500 1.905000 -1.882800 0
M  V30 14 C -2.698000 -0.163600 -1.362400 0
M  V30 15 C -3.843200 -2.208100 -0.470400 0
M  V30 16 C -3.391200 -3.306400 0.505000 0
M  V30 17 C -4.138400 -2.824300 -1.851000 0
M  V30 18 C -5.088800 -1.489300 0.079400 0
M  V30 19 C 1.281000 3.008600 -1.249900 0
M  V30 20 C 1.825800 2.420600 0.064100 0
M  V30 21 C -0.166500 2.021700 1.370800 0
M  V30 22 C -2.182900 1.330800 2.722700 0
M  V30 23 C -1.979000 2.290200 3.908900 0
M  V30 24 C -3.203700 1.913600 1.726600 0
M  V30 25 C -2.670200 -0.037500 3.221800 0
M  V30 26 C 1.981700 1.372600 -2.989100 0
M  V30 27 C 1.968700 -0.155400 -2.874200 0
M  V30 28 C 3.119700 -0.841300 -0.821400 0
M  V30 29 C 4.183400 -1.138300 1.440700 0
M  V30 30 C 4.573200 -2.609500 1.216600 0
M  V30 31 C 5.389400 -0.210100 1.205400 0
M  V30 32 C 3.640300 -0.952100 2.866200 0
M  V30 33 H -1.855600 -1.486100 -0.073900 0
M  V30 34 H -0.565600 0.127000 1.988700 0
M  V30 35 H 2.300500 -0.257400 0.949600 0
M  V30 36 H -0.467400 1.434800 -3.679300 0
M  V30 37 H -0.447600 3.166200 -3.271700 0
M  V30 38 H -1.482900 2.602900 -1.036000 0
M  V30 39 H -2.512800 2.055100 -2.371900 0
M  V30 40 H -2.498500 -3.824000 0.133200 0
M  V30 41 H -4.186600 -4.048400 0.625100 0
M  V30 42 H -3.163100 -2.891700 1.493700 0
M  V30 43 H -4.429800 -2.047600 -2.561300 0
M  V30 44 H -4.953200 -3.552800 -1.770100 0
M  V30 45 H -3.251600 -3.340500 -2.236100 0
M  V30 46 H -4.882700 -1.066500 1.068700 0
M  V30 47 H -5.919600 -2.197700 0.172300 0
M  V30 48 H -5.389400 -0.680600 -0.590300 0
M  V30 49 H 0.404700 3.609600 -1.004000 0
M  V30 50 H 2.022400 3.665200 -1.727000 0
M  V30 51 H 2.771500 1.900000 -0.117500 0
M  V30 52 H 2.003300 3.242800 0.765200 0
M  V30 53 H -1.263300 1.867200 4.622900 0
M  V30 54 H -2.929300 2.458400 4.428900 0
M  V30 55 H -1.593300 3.248600 3.554300 0
M  V30 56 H -2.845800 2.865900 1.328500 0
M  V30 57 H -4.163300 2.084600 2.227600 0
M  V30 58 H -3.371300 1.220200 0.896600 0
M  V30 59 H -2.796000 -0.730500 2.382500 0
M  V30 60 H -3.635100 0.067000 3.727700 0
M  V30 61 H -1.958900 -0.475900 3.932600 0
M  V30 62 H 2.930100 1.739400 -2.586900 0
M  V30 63 H 1.901800 1.711700 -4.031100 0
M  V30 64 H 1.083600 -0.566500 -3.375300 0
M  V30 65 H 2.860200 -0.602600 -3.322500 0
M  V30 66 H 4.952300 -2.754700 0.202900 0
M  V30 67 H 3.702300 -3.258200 1.357600 0
M  V30 68 H 5.351100 -2.902500 1.930900 0
M  V30 69 H 5.110400 0.834700 1.388700 0
M  V30 70 H 5.740200 -0.305100 0.175000 0
M  V30 71 H 6.210500 -0.470100 1.883500 0
M  V30 72 H 2.779300 -1.607500 3.043200 0
M  V30 73 H 3.328000 0.086000 3.038200 0
M  V30 74 H 4.414300 -1.198000 3.599800 0
M  V30 75 N -0.056000 -1.462000 0.501700 0
M  V30 76 N 0.516900 -2.538100 0.447200 0 CHG=1 VAL=4
M  V30 77 N 1.033300 -3.563400 0.437600 0 CHG=-1 VAL=2
M  V30 END ATOM
M  V30 BEGIN BOND
M  V30 1 1 63 26
M  V30 2 1 36 12
M  V30 3 1 64 27
M  V30 4 1 65 27
M  V30 5 1 37 12
M  V30 6 1 26 27
M  V30 7 1 26 62
M  V30 8 1 26 5
M  V30 9 1 27 8
M  V30 10 1 12 5
M  V30 11 1 12 13
M  V30 12 1 43 17
M  V30 13 1 39 13
M  V30 14 1 45 17
M  V30 15 1 5 19
M  V30 16 1 2 14
M  V30 17 1 13 6
M  V30 18 1 13 38
M  V30 19 1 17 44
M  V30 20 1 17 15
M  V30 21 1 50 19
M  V30 22 2 4 28
M  V30 23 1 8 28
M  V30 24 2 6 14 CFG=2
M  V30 25 1 14 9
M  V30 26 1 19 49
M  V30 27 1 19 20
M  V30 28 1 28 11
M  V30 29 1 48 18
M  V30 30 1 9 15
M  V30 31 1 9 33
M  V30 32 1 15 18
M  V30 33 1 15 16
M  V30 34 1 51 20
M  V30 35 1 20 7
M  V30 36 1 20 52
M  V30 37 1 18 47
M  V30 38 1 18 46
M  V30 39 1 40 16
M  V30 40 1 70 31
M  V30 41 1 66 30
M  V30 42 2 77 76
M  V30 43 2 76 75
M  V30 44 1 16 41
M  V30 45 1 16 42
M  V30 46 1 11 35
M  V30 47 1 11 29
M  V30 48 1 7 21
M  V30 49 1 58 24
M  V30 50 1 31 69
M  V30 51 1 31 29
M  V30 52 1 31 71
M  V30 53 1 30 67
M  V30 54 1 30 29
M  V30 55 1 30 68
M  V30 56 1 56 24
M  V30 57 2 21 3
M  V30 58 1 21 10
M  V30 59 1 29 32
M  V30 60 1 24 57
M  V30 61 1 24 22
M  V30 62 1 34 10
M  V30 63 1 10 22
M  V30 64 1 59 25
M  V30 65 1 22 25
M  V30 66 1 22 23
M  V30 67 1 32 73
M  V30 68 1 32 72
M  V30 69 1 32 74
M  V30 70 1 25 60
M  V30 71 1 25 61
M  V30 72 1 55 23
M  V30 73 1 23 54
M  V30 74 1 23 53
M  V30 75 1 1 75
M  V30 76 9 5 1
M  V30 77 9 6 1
M  V30 END BOND
M  V30 END CTAB
M  END
