
     RDKit          3D

  0  0  0  0  0  0  0  0  0  0999 V3000
M  V30 BEGIN CTAB
M  V30 COUNTS 75 76 0 0 0
M  V30 BEGIN ATOM
M  V30 1 Fe -0.451900 -0.414780 0.202910 0 VAL=4
M  V30 2 O 3.162010 -2.254360 1.288490 0
M  V30 3 O 0.347090 2.865820 2.026790 0
M  V30 4 O -4.197350 -1.438510 0.393740 0
M  V30 5 N -0.995330 -0.765310 2.632880 0
M  V30 6 N 1.383870 -0.821670 1.064930 0 RAD=2 VAL=2
M  V30 7 N -0.917510 1.359260 0.796150 0
M  V30 8 N -1.897430 -1.671270 0.162670 0
M  V30 9 N 2.857720 -1.143770 -0.712300 0
M  V30 10 N 0.882530 2.440630 -0.168520 0
M  V30 11 N -3.121100 -0.515090 -1.417090 0
M  V30 12 C 0.277900 -1.179740 3.206140 0
M  V30 13 C 1.444620 -0.482340 2.471360 0
M  V30 14 C 2.557680 -1.471510 0.555940 0
M  V30 15 C 3.956650 -1.752580 -1.500250 0
M  V30 16 C 3.937110 -1.055860 -2.868750 0
M  V30 17 C 3.697580 -3.261850 -1.664660 0
M  V30 18 C 5.298950 -1.497760 -0.794560 0
M  V30 19 C -1.458510 0.567940 3.063400 0
M  V30 20 C -1.937800 1.371560 1.841790 0
M  V30 21 C 0.122490 2.287440 0.953360 0
M  V30 22 C 2.183150 3.134560 -0.233440 0
M  V30 23 C 2.003290 4.630010 0.083280 0
M  V30 24 C 3.174300 2.487520 0.753280 0
M  V30 25 C 2.693980 2.954710 -1.671180 0
M  V30 26 C -2.042360 -1.805940 2.597660 0
M  V30 27 C -1.918550 -2.599610 1.292260 0
M  V30 28 C -3.166510 -1.226110 -0.254620 0
M  V30 29 C -4.235550 0.269210 -1.981300 0
M  V30 30 C -5.396440 -0.662660 -2.375350 0
M  V30 31 C -4.704550 1.315820 -0.953450 0
M  V30 32 C -3.675180 0.976050 -3.224850 0
M  V30 33 H 2.132480 -0.651950 -1.232960 0
M  V30 34 H 0.564630 1.956190 -1.000020 0
M  V30 35 H -2.247580 -0.527500 -1.930180 0
M  V30 36 H 0.394170 -2.259880 3.082150 0
M  V30 37 H 0.349370 -0.948620 4.280140 0
M  V30 38 H 1.311350 0.605990 2.549500 0
M  V30 39 H 2.403900 -0.766300 2.908740 0
M  V30 40 H 2.973750 -1.196170 -3.371890 0
M  V30 41 H 4.722080 -1.473390 -3.506930 0
M  V30 42 H 4.118270 0.019930 -2.763730 0
M  V30 43 H 3.677970 -3.754810 -0.689410 0
M  V30 44 H 4.490830 -3.714180 -2.270370 0
M  V30 45 H 2.738940 -3.432440 -2.167020 0
M  V30 46 H 5.467420 -0.422040 -0.672590 0
M  V30 47 H 6.115710 -1.909630 -1.397280 0
M  V30 48 H 5.319330 -1.969850 0.190280 0
M  V30 49 H -0.625500 1.112220 3.511300 0
M  V30 50 H -2.254070 0.480390 3.816760 0
M  V30 51 H -2.847170 0.923640 1.429740 0
M  V30 52 H -2.162650 2.397590 2.152100 0
M  V30 53 H 1.309630 5.088590 -0.630270 0
M  V30 54 H 2.965780 5.150460 0.014280 0
M  V30 55 H 1.600980 4.756080 1.090610 0
M  V30 56 H 2.805280 2.579990 1.777690 0
M  V30 57 H 4.150620 2.981320 0.690020 0
M  V30 58 H 3.308980 1.426500 0.513870 0
M  V30 59 H 2.810710 1.892670 -1.916130 0
M  V30 60 H 3.666410 3.443600 -1.787590 0
M  V30 61 H 1.999860 3.398110 -2.394760 0
M  V30 62 H -3.017450 -1.316670 2.589420 0
M  V30 63 H -1.988540 -2.458140 3.482050 0
M  V30 64 H -0.982950 -3.172010 1.276500 0
M  V30 65 H -2.756750 -3.298130 1.200400 0
M  V30 66 H -5.764180 -1.197470 -1.496980 0
M  V30 67 H -5.061270 -1.396070 -3.117480 0
M  V30 68 H -6.218030 -0.081290 -2.810230 0
M  V30 69 H -3.872090 1.973380 -0.678420 0
M  V30 70 H -5.079860 0.824000 -0.052700 0
M  V30 71 H -5.508060 1.928730 -1.377430 0
M  V30 72 H -3.324530 0.248810 -3.967080 0
M  V30 73 H -2.835280 1.628750 -2.959680 0
M  V30 74 H -4.454340 1.587700 -3.690780 0
M  V30 75 Cl 0.154960 -0.190000 -2.112280 0
M  V30 END ATOM
M  V30 BEGIN BOND
M  V30 1 1 72 32
M  V30 2 1 74 32
M  V30 3 1 41 16
M  V30 4 1 40 16
M  V30 5 1 32 73
M  V30 6 1 32 29
M  V30 7 1 67 30
M  V30 8 1 16 42
M  V30 9 1 16 15
M  V30 10 1 68 30
M  V30 11 1 61 25
M  V30 12 1 30 29
M  V30 13 1 30 66
M  V30 14 1 44 17
M  V30 15 1 45 17
M  V30 16 1 75 1
M  V30 17 1 29 11
M  V30 18 1 29 31
M  V30 19 1 35 11
M  V30 20 1 59 25
M  V30 21 1 60 25
M  V30 22 1 25 22
M  V30 23 1 17 15
M  V30 24 1 17 43
M  V30 25 1 15 18
M  V30 26 1 15 9
M  V30 27 1 11 28
M  V30 28 1 47 18
M  V30 29 1 71 31
M  V30 30 1 33 9
M  V30 31 1 34 10
M  V30 32 1 31 69
M  V30 33 1 31 70
M  V30 34 1 18 46
M  V30 35 1 18 48
M  V30 36 1 9 14
M  V30 37 1 53 23
M  V30 38 1 28 8
M  V30 39 2 28 4
M  V30 40 1 22 10
M  V30 41 1 22 23
M  V30 42 1 22 24
M  V30 43 1 10 21
M  V30 44 1 54 23
M  V30 45 1 23 55
M  V30 46 1 8 1
M  V30 47 1 8 27
M  V30 48 1 1 7
M  V30 49 1 58 24
M  V30 50 1 14 6
M  V30 51 2 14 2
M  V30 52 1 57 24
M  V30 53 1 24 56
M  V30 54 1 7 21
M  V30 55 1 7 20
M  V30 56 2 21 3
M  V30 57 1 6 13
M  V30 58 1 65 27
M  V30 59 1 64 27
M  V30 60 1 27 26
M  V30 61 1 51 20
M  V30 62 1 20 52
M  V30 63 1 20 19
M  V30 64 1 13 38
M  V30 65 1 13 39
M  V30 66 1 13 12
M  V30 67 1 62 26
M  V30 68 1 26 5
M  V30 69 1 26 63
M  V30 70 1 5 19
M  V30 71 1 5 12
M  V30 72 1 19 49
M  V30 73 1 19 50
M  V30 74 1 36 12
M  V30 75 1 12 37
M  V30 76 9 5 1
M  V30 END BOND
M  V30 END CTAB
M  END
