
     RDKit          3D

  0  0  0  0  0  0  0  0  0  0999 V3000
M  V30 BEGIN CTAB
M  V30 COUNTS 72 73 0 0 0
M  V30 BEGIN ATOM
M  V30 1 C 3.995480 2.774020 -0.872010 0
M  V30 2 H 4.714990 1.987820 -1.125300 0
M  V30 3 H 3.751350 3.310800 -1.793390 0
M  V30 4 N 2.680930 1.732630 1.025470 0
M  V30 5 H 3.468520 1.610070 1.653400 0
M  V30 6 C 2.752890 2.200440 -0.277510 0
M  V30 7 C 1.442350 1.206680 1.219820 0
M  V30 8 H 1.104540 0.748540 2.136230 0
M  V30 9 N 0.709560 1.332650 0.130370 0
M  V30 10 C 1.512210 1.954210 -0.808220 0
M  V30 11 H 1.141060 2.153980 -1.801510 0
M  V30 12 C 1.233730 -0.505360 -3.482920 0
M  V30 13 H 2.204130 -0.317540 -3.005400 0
M  V30 14 H 1.345300 -1.386450 -4.121230 0
M  V30 15 C 0.219800 -0.774870 -2.383410 0
M  V30 16 O -0.582360 0.169770 -2.089550 0
M  V30 17 O 0.260650 -1.897290 -1.808560 0
M  V30 18 C -2.064190 6.194410 0.626970 0
M  V30 19 H -2.743080 6.525910 1.423370 0
M  V30 20 H -1.040060 6.343470 0.979990 0
M  V30 21 N -3.477120 4.260970 -0.202440 0
M  V30 22 H -4.316880 4.797900 -0.365350 0
M  V30 23 C -2.271760 4.758130 0.277950 0
M  V30 24 C -3.340780 2.929550 -0.422860 0
M  V30 25 H -4.117540 2.273470 -0.788730 0
M  V30 26 N -2.116010 2.539840 -0.112370 0
M  V30 27 C -1.443440 3.667950 0.323510 0
M  V30 28 H -0.411190 3.611440 0.630970 0
M  V30 29 C -4.543950 -3.904680 0.196660 0
M  V30 30 H -4.495850 -4.685510 -0.568610 0
M  V30 31 H -5.135310 -4.280070 1.034760 0
M  V30 32 N -3.204120 -3.609870 0.681050 0
M  V30 33 H -3.102100 -3.226540 1.620370 0
M  V30 34 C -2.161400 -3.367010 -0.122100 0 RAD=2 VAL=3
M  V30 35 N -2.276080 -3.483770 -1.471720 0
M  V30 36 H -3.138360 -3.090070 -1.837040 0
M  V30 37 H -1.461610 -3.104030 -1.955440 0
M  V30 38 N -0.964580 -3.103210 0.413790 0
M  V30 39 H -0.998450 -2.801630 1.393910 0
M  V30 40 H -0.344590 -2.571700 -0.204540 0
M  V30 41 Fe -1.349650 0.513610 -0.264000 0 VAL=5
M  V30 42 C -3.136980 0.139590 2.856930 0
M  V30 43 H -2.725370 1.129480 3.077020 0
M  V30 44 H -3.849130 0.251690 2.030040 0
M  V30 45 C -2.039760 -0.794740 2.380980 0
M  V30 46 O -2.004730 -1.980270 2.772520 0
M  V30 47 O -1.176920 -0.301320 1.553330 0
M  V30 48 N 6.467540 0.328330 0.275230 0
M  V30 49 C 1.864120 -2.245000 1.718870 0
M  V30 50 H 1.853130 -2.449360 2.791890 0
M  V30 51 H 1.783400 -3.185770 1.171720 0
M  V30 52 H 1.013440 -1.601570 1.469440 0
M  V30 53 C 4.677600 -0.829730 -0.269210 0
M  V30 54 N 5.398550 -0.658770 -1.431100 0
M  V30 55 C 6.470700 0.031810 -1.069090 0
M  V30 56 H 7.269830 0.346300 -1.725610 0
M  V30 57 N 3.119860 -1.590530 1.352760 0
M  V30 58 C 3.825190 -0.922190 2.294340 0 RAD=2 VAL=3
M  V30 59 H 3.420960 -0.988410 3.302340 0
M  V30 60 N 4.912260 -0.197540 2.119140 0
M  V30 61 C 5.326390 -0.229060 0.803630 0
M  V30 62 C 3.437700 -1.508970 -0.058430 0
M  V30 63 N 2.989540 -2.549920 -0.888430 0
M  V30 64 H 3.649040 -2.696080 -1.648680 0
M  V30 65 H 2.052650 -2.405920 -1.276280 0
M  V30 66 H -2.217970 6.852960 -0.237740 0
M  V30 67 H 4.485050 3.479920 -0.190120 0
M  V30 68 H 7.185060 0.806610 0.800740 0
M  V30 69 H -3.648780 -0.269560 3.730650 0
M  V30 70 H -5.025570 -3.010000 -0.215870 0
M  V30 71 H 0.954810 0.365620 -4.079510 0
M  V30 72 Br -3.820720 -0.441810 -0.848860 0
M  V30 END ATOM
M  V30 BEGIN BOND
M  V30 1 1 14 12
M  V30 2 1 71 12
M  V30 3 1 12 13
M  V30 4 1 12 15
M  V30 5 1 15 16
M  V30 6 2 15 17
M  V30 7 1 16 41
M  V30 8 1 37 35
M  V30 9 1 36 35
M  V30 10 1 11 10
M  V30 11 1 3 1
M  V30 12 1 56 55
M  V30 13 1 64 63
M  V30 14 1 35 34
M  V30 15 2 54 55
M  V30 16 1 54 53
M  V30 17 1 65 63
M  V30 18 1 2 1
M  V30 19 1 55 48
M  V30 20 1 63 62
M  V30 21 1 1 6
M  V30 22 1 1 67
M  V30 23 1 72 41
M  V30 24 2 10 6
M  V30 25 1 10 9
M  V30 26 1 25 24
M  V30 27 1 30 29
M  V30 28 1 24 21
M  V30 29 2 24 26
M  V30 30 1 22 21
M  V30 31 1 6 4
M  V30 32 2 53 62
M  V30 33 1 53 61
M  V30 34 1 41 47
M  V30 35 1 66 18
M  V30 36 1 70 29
M  V30 37 1 40 38
M  V30 38 1 21 23
M  V30 39 1 34 38
M  V30 40 1 34 32
M  V30 41 1 26 27
M  V30 42 1 62 57
M  V30 43 2 9 7
M  V30 44 1 29 32
M  V30 45 1 29 31
M  V30 46 1 48 68
M  V30 47 1 48 61
M  V30 48 2 23 27
M  V30 49 1 23 18
M  V30 50 1 27 28
M  V30 51 1 38 39
M  V30 52 1 18 20
M  V30 53 1 18 19
M  V30 54 1 32 33
M  V30 55 2 61 60
M  V30 56 1 4 7
M  V30 57 1 4 5
M  V30 58 1 51 49
M  V30 59 1 7 8
M  V30 60 1 57 49
M  V30 61 1 57 58
M  V30 62 1 52 49
M  V30 63 1 47 45
M  V30 64 1 49 50
M  V30 65 1 44 42
M  V30 66 1 60 58
M  V30 67 1 58 59
M  V30 68 2 45 46
M  V30 69 1 45 42
M  V30 70 1 42 43
M  V30 71 1 42 69
M  V30 72 9 9 41
M  V30 73 9 26 41
M  V30 END BOND
M  V30 END CTAB
M  END
