
     RDKit          3D

  0  0  0  0  0  0  0  0  0  0999 V3000
M  V30 BEGIN CTAB
M  V30 COUNTS 72 75 0 0 0
M  V30 BEGIN ATOM
M  V30 1 C -3.657380 3.437800 0.338330 0
M  V30 2 H -3.752750 4.270090 -0.371220 0
M  V30 3 H -4.607760 2.891330 0.346120 0
M  V30 4 N -2.411830 1.865860 -1.208730 0
M  V30 5 H -3.159280 1.754520 -1.883170 0
M  V30 6 C -2.513390 2.541690 -0.000050 0
M  V30 7 C -1.269400 1.126680 -1.183170 0
M  V30 8 H -0.934770 0.484810 -1.981560 0
M  V30 9 N -0.623750 1.309500 -0.048840 0
M  V30 10 C -1.385900 2.189020 0.696760 0
M  V30 11 H -1.064670 2.486030 1.683050 0
M  V30 12 C -0.992290 -0.416790 3.848770 0
M  V30 13 H -2.007530 -0.442820 3.430210 0
M  V30 14 H -0.811310 -1.379730 4.336970 0
M  V30 15 C -0.020540 -0.221350 2.706930 0
M  V30 16 O 0.576690 0.877200 2.545020 0
M  V30 17 O 0.129510 -1.173350 1.863200 0
M  V30 18 C 2.702850 5.694870 -1.339550 0
M  V30 19 H 3.475960 5.805170 -2.111280 0
M  V30 20 H 1.732800 5.865050 -1.814930 0
M  V30 21 N 3.827710 3.837040 -0.033840 0
M  V30 22 H 4.703620 4.317800 0.112310 0
M  V30 23 C 2.725380 4.339940 -0.713780 0
M  V30 24 C 3.527310 2.590460 0.414340 0
M  V30 25 H 4.194220 1.947060 0.969550 0
M  V30 26 N 2.297950 2.262970 0.061740 0
M  V30 27 C 1.789460 3.341240 -0.637500 0
M  V30 28 H 0.783310 3.323640 -1.026790 0
M  V30 29 C 4.369410 -3.717280 0.117830 0
M  V30 30 H 4.356130 -4.402520 0.971470 0
M  V30 31 H 5.079370 -4.103410 -0.617200 0
M  V30 32 N 3.053010 -3.685170 -0.506970 0
M  V30 33 H 3.002780 -3.502180 -1.505410 0
M  V30 34 C 1.899090 -3.488240 0.152270 0 RAD=2 VAL=3
M  V30 35 N 1.887770 -3.352250 1.498770 0
M  V30 36 H 2.719750 -2.878990 1.849730 0
M  V30 37 H 1.074580 -2.826070 1.833680 0
M  V30 38 N 0.758400 -3.537010 -0.552450 0
M  V30 39 H 0.885700 -3.261110 -1.532270 0
M  V30 40 H -0.097630 -3.150230 -0.140070 0
M  V30 41 Fe 1.324760 0.350550 0.552880 0 VAL=7
M  V30 42 C 3.271010 -0.202520 -2.308280 0
M  V30 43 H 2.981030 0.841620 -2.463820 0
M  V30 44 H 3.864370 -0.234440 -1.386200 0
M  V30 45 C 2.034660 -1.059490 -2.090750 0
M  V30 46 O 1.898190 -2.137060 -2.715560 0
M  V30 47 O 1.177470 -0.633980 -1.227540 0
M  V30 48 N -5.615720 0.436150 0.303050 0
M  V30 49 C -1.724970 -2.319060 -2.395460 0
M  V30 50 H -1.899790 -2.253260 -3.471440 0
M  V30 51 H -1.682300 -3.370220 -2.101800 0
M  V30 52 H -0.769680 -1.844910 -2.150510 0
M  V30 53 C -3.839690 -0.866030 0.315010 0
M  V30 54 N -4.155970 -0.626320 1.635270 0
M  V30 55 C -5.225400 0.153840 1.593330 0
M  V30 56 H -5.759170 0.537500 2.451340 0
M  V30 57 N -2.817760 -1.644790 -1.689360 0
M  V30 58 C -3.735530 -0.932680 -2.389860 0 RAD=2 VAL=3
M  V30 59 H -3.628720 -0.986700 -3.470600 0
M  V30 60 N -4.709980 -0.189240 -1.907750 0
M  V30 61 C -4.735990 -0.214720 -0.529900 0
M  V30 62 C -2.785810 -1.627080 -0.254210 0
M  V30 63 N -1.890570 -2.474390 0.423640 0
M  V30 64 H -2.385980 -3.174420 0.981750 0
M  V30 65 H -1.296520 -1.931840 1.067670 0
M  V30 66 H 2.855270 6.491640 -0.599710 0
M  V30 67 H -3.508710 3.862170 1.335220 0
M  V30 68 H -6.422800 0.966630 0.007870 0
M  V30 69 H 3.859230 -0.568510 -3.152610 0
M  V30 70 H 4.684320 -2.723550 0.452440 0
M  V30 71 H -0.913590 0.394180 4.575490 0
M  V30 72 Cl 3.527060 -0.547020 1.377160 0
M  V30 END ATOM
M  V30 BEGIN BOND
M  V30 1 1 50 49
M  V30 2 1 59 58
M  V30 3 1 69 42
M  V30 4 2 46 45
M  V30 5 1 43 42
M  V30 6 1 49 52
M  V30 7 1 49 51
M  V30 8 1 49 57
M  V30 9 1 58 60
M  V30 10 1 58 57
M  V30 11 1 42 45
M  V30 12 1 42 44
M  V30 13 1 19 18
M  V30 14 1 45 47
M  V30 15 1 8 7
M  V30 16 2 60 61
M  V30 17 1 5 4
M  V30 18 1 20 18
M  V30 19 1 57 62
M  V30 20 1 39 38
M  V30 21 1 33 32
M  V30 22 1 18 23
M  V30 23 1 18 66
M  V30 24 1 47 41
M  V30 25 1 4 7
M  V30 26 1 4 6
M  V30 27 2 7 9
M  V30 28 1 28 27
M  V30 29 2 23 27
M  V30 30 1 23 21
M  V30 31 1 27 26
M  V30 32 1 31 29
M  V30 33 1 38 40
M  V30 34 1 38 34
M  V30 35 1 61 48
M  V30 36 1 61 53
M  V30 37 1 32 29
M  V30 38 1 32 34
M  V30 39 1 2 1
M  V30 40 2 62 53
M  V30 41 1 62 63
M  V30 42 1 9 10
M  V30 43 1 21 22
M  V30 44 1 21 24
M  V30 45 1 6 1
M  V30 46 2 6 10
M  V30 47 1 68 48
M  V30 48 2 26 24
M  V30 49 1 29 70
M  V30 50 1 29 30
M  V30 51 1 34 35
M  V30 52 1 48 55
M  V30 53 1 53 54
M  V30 54 1 1 3
M  V30 55 1 1 67
M  V30 56 1 24 25
M  V30 57 1 63 64
M  V30 58 1 63 65
M  V30 59 1 41 72
M  V30 60 1 41 17
M  V30 61 1 41 16
M  V30 62 1 10 11
M  V30 63 1 35 37
M  V30 64 1 35 36
M  V30 65 2 55 54
M  V30 66 1 55 56
M  V30 67 1 17 15
M  V30 68 1 16 15
M  V30 69 1 15 12
M  V30 70 1 13 12
M  V30 71 1 12 14
M  V30 72 1 12 71
M  V30 73 1 15 41
M  V30 74 9 9 41
M  V30 75 9 26 41
M  V30 END BOND
M  V30 END CTAB
M  END
