
     RDKit          3D

  0  0  0  0  0  0  0  0  0  0999 V3000
M  V30 BEGIN CTAB
M  V30 COUNTS 72 75 0 0 0
M  V30 BEGIN ATOM
M  V30 1 C -3.023290 3.869010 -0.292450 0
M  V30 2 H -3.031010 4.544380 -1.157890 0
M  V30 3 H -4.035500 3.464340 -0.172150 0
M  V30 4 N -2.023180 1.875500 -1.492720 0
M  V30 5 H -2.779690 1.744510 -2.153950 0
M  V30 6 C -2.013740 2.780420 -0.439680 0
M  V30 7 C -0.996600 1.004370 -1.311710 0
M  V30 8 H -0.764930 0.174720 -1.958820 0
M  V30 9 N -0.316690 1.310940 -0.223910 0
M  V30 10 C -0.937120 2.416120 0.326980 0
M  V30 11 H -0.570000 2.846940 1.245380 0
M  V30 12 C -1.089860 0.453140 3.824780 0
M  V30 13 H -2.077640 0.465480 3.346270 0
M  V30 14 H -1.062380 -0.416300 4.490420 0
M  V30 15 C -0.040990 0.306130 2.742530 0
M  V30 16 O 0.789200 1.225260 2.510080 0
M  V30 17 O -0.065390 -0.761550 2.033680 0
M  V30 18 C 4.546450 4.602590 -1.809480 0
M  V30 19 H 5.588830 4.726640 -1.487800 0
M  V30 20 H 4.559290 4.233650 -2.838840 0
M  V30 21 N 3.614590 3.843210 0.420640 0
M  V30 22 H 3.949470 4.631850 0.954780 0
M  V30 23 C 3.803950 3.642820 -0.940270 0
M  V30 24 C 2.908730 2.790380 0.914570 0
M  V30 25 H 2.594210 2.680400 1.942050 0
M  V30 26 N 2.635970 1.929880 -0.046840 0
M  V30 27 C 3.183490 2.447420 -1.201520 0
M  V30 28 H 3.096880 1.928470 -2.144060 0
M  V30 29 C 4.029940 -3.598870 0.624790 0
M  V30 30 H 4.115750 -4.060590 1.613420 0
M  V30 31 H 4.775060 -4.045120 -0.037050 0
M  V30 32 N 2.709540 -3.879260 0.068310 0
M  V30 33 H 2.630820 -3.954990 -0.943950 0
M  V30 34 C 1.565370 -3.543550 0.686320 0 RAD=2 VAL=3
M  V30 35 N 1.619310 -3.007750 1.927090 0
M  V30 36 H 2.327110 -2.253520 1.952500 0
M  V30 37 H 0.740480 -2.584660 2.222020 0
M  V30 38 N 0.400090 -3.834910 0.078120 0
M  V30 39 H 0.498290 -3.880730 -0.939630 0
M  V30 40 H -0.423050 -3.281130 0.349830 0
M  V30 41 Fe 1.431100 0.166060 0.558890 0 VAL=7
M  V30 42 C 3.228910 -1.203860 -2.134830 0
M  V30 43 H 3.146490 -0.295060 -2.741950 0
M  V30 44 H 3.648950 -0.916480 -1.165360 0
M  V30 45 C 1.836020 -1.790230 -1.907550 0
M  V30 46 O 1.558530 -2.922280 -2.382550 0
M  V30 47 O 1.032110 -1.091920 -1.199640 0
M  V30 48 N -5.347360 1.127390 0.038520 0
M  V30 49 C -1.909460 -2.594430 -2.049270 0
M  V30 50 H -2.054540 -2.667380 -3.129130 0
M  V30 51 H -2.055280 -3.580670 -1.601500 0
M  V30 52 H -0.893160 -2.249090 -1.840260 0
M  V30 53 C -3.814480 -0.428510 0.323380 0
M  V30 54 N -4.106860 0.065580 1.577040 0
M  V30 55 C -5.030360 0.993280 1.372190 0
M  V30 56 H -5.507520 1.587420 2.138650 0
M  V30 57 N -2.886310 -1.649090 -1.498280 0
M  V30 58 C -3.659530 -0.915960 -2.335260 0 RAD=2 VAL=3
M  V30 59 H -3.536640 -1.146460 -3.390500 0
M  V30 60 N -4.514160 0.035250 -2.012100 0
M  V30 61 C -4.576360 0.219090 -0.647350 0
M  V30 62 C -2.893730 -1.429530 -0.082320 0
M  V30 63 N -2.080960 -2.223800 0.750270 0
M  V30 64 H -2.648790 -2.759260 1.411690 0
M  V30 65 H -1.458520 -1.618300 1.307970 0
M  V30 66 H 4.080100 5.596530 -1.817720 0
M  V30 67 H -2.795440 4.464960 0.595930 0
M  V30 68 H -6.048310 1.729550 -0.368760 0
M  V30 69 H 3.881510 -1.914500 -2.648080 0
M  V30 70 H 4.198970 -2.521860 0.715260 0
M  V30 71 H -0.938100 1.367980 4.401480 0
M  V30 72 F 2.943590 -0.802750 1.171120 0
M  V30 END ATOM
M  V30 BEGIN BOND
M  V30 1 1 59 58
M  V30 2 1 50 49
M  V30 3 1 20 18
M  V30 4 1 43 42
M  V30 5 1 69 42
M  V30 6 2 46 45
M  V30 7 1 58 60
M  V30 8 1 58 57
M  V30 9 1 5 4
M  V30 10 1 28 27
M  V30 11 1 42 45
M  V30 12 1 42 44
M  V30 13 1 49 52
M  V30 14 1 49 51
M  V30 15 1 49 57
M  V30 16 2 60 61
M  V30 17 1 8 7
M  V30 18 1 45 47
M  V30 19 1 66 18
M  V30 20 1 18 19
M  V30 21 1 18 23
M  V30 22 1 57 62
M  V30 23 1 4 7
M  V30 24 1 4 6
M  V30 25 2 7 9
M  V30 26 2 27 23
M  V30 27 1 27 26
M  V30 28 1 47 41
M  V30 29 1 2 1
M  V30 30 1 33 32
M  V30 31 1 23 21
M  V30 32 1 39 38
M  V30 33 1 61 48
M  V30 34 1 61 53
M  V30 35 1 6 1
M  V30 36 2 6 10
M  V30 37 1 68 48
M  V30 38 1 1 3
M  V30 39 1 1 67
M  V30 40 1 9 10
M  V30 41 2 62 53
M  V30 42 1 62 63
M  V30 43 2 26 24
M  V30 44 1 31 29
M  V30 45 1 48 55
M  V30 46 1 32 29
M  V30 47 1 32 34
M  V30 48 1 38 40
M  V30 49 1 38 34
M  V30 50 1 53 54
M  V30 51 1 10 11
M  V30 52 1 21 24
M  V30 53 1 21 22
M  V30 54 1 41 72
M  V30 55 1 41 17
M  V30 56 1 41 16
M  V30 57 1 29 70
M  V30 58 1 29 30
M  V30 59 1 34 35
M  V30 60 1 63 65
M  V30 61 1 63 64
M  V30 62 1 24 25
M  V30 63 2 55 54
M  V30 64 1 55 56
M  V30 65 1 35 36
M  V30 66 1 35 37
M  V30 67 1 17 15
M  V30 68 1 16 15
M  V30 69 1 15 12
M  V30 70 1 13 12
M  V30 71 1 12 71
M  V30 72 1 12 14
M  V30 73 1 15 41
M  V30 74 9 9 41
M  V30 75 9 26 41
M  V30 END BOND
M  V30 END CTAB
M  END
