
     RDKit          3D

  0  0  0  0  0  0  0  0  0  0999 V3000
M  V30 BEGIN CTAB
M  V30 COUNTS 67 68 0 0 0
M  V30 BEGIN ATOM
M  V30 1 C -3.636870 2.683920 1.076760 0
M  V30 2 H -4.148570 3.438130 0.466550 0
M  V30 3 H -4.362650 1.907240 1.341270 0
M  V30 4 N -2.489700 1.717340 -0.962800 0
M  V30 5 H -3.318080 1.669580 -1.545970 0
M  V30 6 C -2.458050 2.106210 0.366900 0
M  V30 7 C -1.283830 1.172340 -1.276490 0
M  V30 8 H -1.011910 0.761490 -2.236600 0
M  V30 9 N -0.475130 1.210440 -0.235430 0
M  V30 10 C -1.191690 1.791580 0.793390 0
M  V30 11 H -0.745160 1.937810 1.765360 0
M  V30 12 C -0.165890 -0.300440 3.633970 0
M  V30 13 H -0.192250 -1.106090 4.374000 0
M  V30 14 H 0.452200 0.525480 3.992580 0
M  V30 15 C 0.334790 -0.830310 2.296750 0
M  V30 16 O 1.202910 -0.138920 1.684610 0
M  V30 17 O -0.164670 -1.920200 1.886830 0
M  V30 18 C 2.283540 6.130840 0.004110 0
M  V30 19 H 2.806640 6.645420 -0.812500 0
M  V30 20 H 1.215340 6.338950 -0.102890 0
M  V30 21 N 3.774130 4.082930 0.088660 0
M  V30 22 H 4.645390 4.581940 0.196720 0
M  V30 23 C 2.513850 4.656450 -0.025700 0
M  V30 24 C 3.644150 2.733940 0.024260 0
M  V30 25 H 4.457950 2.024330 0.072300 0
M  V30 26 N 2.372300 2.404710 -0.123990 0
M  V30 27 C 1.661760 3.591810 -0.156280 0
M  V30 28 H 0.588620 3.593220 -0.264780 0
M  V30 29 C 4.292740 -4.284560 -0.007830 0
M  V30 30 H 4.058930 -5.249960 0.452210 0
M  V30 31 H 5.045120 -4.454750 -0.779700 0
M  V30 32 N 3.103520 -3.735270 -0.650120 0
M  V30 33 H 3.320260 -2.999700 -1.319700 0
M  V30 34 C 1.985850 -3.454590 0.055830 0 RAD=2 VAL=3
M  V30 35 N 1.810480 -3.958050 1.301990 0
M  V30 36 H 2.637070 -4.185000 1.835310 0
M  V30 37 H 1.062320 -3.500980 1.827090 0
M  V30 38 N 0.989990 -2.769100 -0.497010 0
M  V30 39 H 1.170670 -2.078040 -1.264250 0
M  V30 40 H 0.336610 -2.391020 0.204360 0
M  V30 41 Fe 1.607560 0.369160 -0.260430 0 VAL=5
M  V30 42 N -6.406960 0.519470 -0.250110 0
M  V30 43 C -1.954570 -2.246260 -1.816800 0
M  V30 44 H -2.075310 -2.582610 -2.849420 0
M  V30 45 H -1.838650 -3.113220 -1.166380 0
M  V30 46 H -1.062610 -1.615440 -1.747910 0
M  V30 47 C -4.647240 -0.701340 0.255840 0
M  V30 48 N -5.351450 -0.528950 1.428010 0
M  V30 49 C -6.406470 0.200010 1.088640 0
M  V30 50 H -7.187430 0.529840 1.759270 0
M  V30 51 N -3.151140 -1.510040 -1.400510 0
M  V30 52 C -3.842910 -0.802320 -2.322440 0 RAD=2 VAL=3
M  V30 53 H -3.464760 -0.882710 -3.339350 0
M  V30 54 N -4.891670 -0.027450 -2.120510 0
M  V30 55 C -5.289800 -0.063780 -0.800070 0
M  V30 56 C -3.423810 -1.399680 0.016950 0
M  V30 57 N -2.918980 -2.394590 0.868720 0
M  V30 58 H -3.571250 -2.557870 1.632360 0
M  V30 59 H -1.998700 -2.182840 1.264020 0
M  V30 60 H 2.617690 6.579810 0.948650 0
M  V30 61 H -3.312150 3.166010 2.003760 0
M  V30 62 H -7.114980 1.027120 -0.760750 0
M  V30 63 H 4.712760 -3.591280 0.732770 0
M  V30 64 H -1.196470 0.049590 3.498350 0
M  V30 65 O 1.167890 -0.493600 -1.946730 0
M  V30 66 H 1.962280 -0.500380 -2.505750 0
M  V30 67 Br 4.200420 -0.626950 -0.436360 0
M  V30 END ATOM
M  V30 BEGIN BOND
M  V30 1 1 53 52
M  V30 2 1 44 43
M  V30 3 1 66 65
M  V30 4 1 52 54
M  V30 5 1 52 51
M  V30 6 1 8 7
M  V30 7 2 54 55
M  V30 8 1 65 41
M  V30 9 1 43 46
M  V30 10 1 43 51
M  V30 11 1 43 45
M  V30 12 1 5 4
M  V30 13 1 51 56
M  V30 14 1 33 32
M  V30 15 1 7 4
M  V30 16 2 7 9
M  V30 17 1 39 38
M  V30 18 1 4 6
M  V30 19 1 19 18
M  V30 20 1 55 42
M  V30 21 1 55 47
M  V30 22 1 31 29
M  V30 23 1 62 42
M  V30 24 1 32 29
M  V30 25 1 32 34
M  V30 26 1 38 34
M  V30 27 1 38 40
M  V30 28 1 67 41
M  V30 29 1 28 27
M  V30 30 1 41 16
M  V30 31 1 42 49
M  V30 32 1 9 10
M  V30 33 1 27 26
M  V30 34 2 27 23
M  V30 35 2 26 24
M  V30 36 1 20 18
M  V30 37 1 23 18
M  V30 38 1 23 21
M  V30 39 1 29 30
M  V30 40 1 29 63
M  V30 41 1 18 60
M  V30 42 2 56 47
M  V30 43 1 56 57
M  V30 44 1 24 25
M  V30 45 1 24 21
M  V30 46 1 34 35
M  V30 47 1 21 22
M  V30 48 1 47 48
M  V30 49 2 6 10
M  V30 50 1 6 1
M  V30 51 1 2 1
M  V30 52 1 10 11
M  V30 53 1 57 59
M  V30 54 1 57 58
M  V30 55 1 1 3
M  V30 56 1 1 61
M  V30 57 2 49 48
M  V30 58 1 49 50
M  V30 59 1 35 37
M  V30 60 1 35 36
M  V30 61 1 16 15
M  V30 62 2 17 15
M  V30 63 1 15 12
M  V30 64 1 64 12
M  V30 65 1 12 14
M  V30 66 1 12 13
M  V30 67 9 9 41
M  V30 68 9 26 41
M  V30 END BOND
M  V30 END CTAB
M  END
