
     RDKit          3D

  0  0  0  0  0  0  0  0  0  0999 V3000
M  V30 BEGIN CTAB
M  V30 COUNTS 85 88 0 0 0
M  V30 BEGIN ATOM
M  V30 1 C 4.195920 -5.927510 -1.123370 0
M  V30 2 H 4.034820 -6.238760 -0.087350 0
M  V30 3 H 3.586540 -6.577390 -1.765160 0
M  V30 4 N 3.927720 -3.808930 -2.487730 0
M  V30 5 H 4.257640 -4.194920 -3.360610 0
M  V30 6 C 3.833570 -4.487920 -1.279390 0
M  V30 7 C 3.528600 -2.525010 -2.294130 0
M  V30 8 H 3.523250 -1.752920 -3.048980 0
M  V30 9 N 3.183750 -2.339930 -1.034690 0
M  V30 10 C 3.367320 -3.549290 -0.394500 0
M  V30 11 H 3.141690 -3.659980 0.655490 0
M  V30 12 C -8.455590 -4.078480 0.844010 0
M  V30 13 H -7.740790 -4.885630 0.630480 0
M  V30 14 H -8.424750 -3.846090 1.912750 0
M  V30 15 N -8.189760 -2.874650 0.071740 0
M  V30 16 H -8.642870 -2.785000 -0.826000 0
M  V30 17 C -7.134970 -2.049870 0.308500 0 RAD=2 VAL=3
M  V30 18 N -6.269690 -2.323340 1.285340 0
M  V30 19 H -5.420530 -1.684240 1.343850 0
M  V30 20 H -6.119210 -3.293680 1.523690 0
M  V30 21 N -7.020160 -0.933190 -0.408800 0
M  V30 22 H -7.769920 -0.627640 -1.011000 0
M  V30 23 H -6.175640 -0.342090 -0.427550 0
M  V30 24 C 6.410750 1.549530 3.509630 0
M  V30 25 H 7.298880 0.948400 3.744670 0
M  V30 26 H 6.727940 2.370160 2.860690 0
M  V30 27 N 4.758600 -0.368180 3.391170 0
M  V30 28 H 4.959920 -0.744550 4.306210 0
M  V30 29 C 5.359490 0.745890 2.819130 0
M  V30 30 C 3.857780 -0.869750 2.502450 0
M  V30 31 H 3.230500 -1.727430 2.689460 0
M  V30 32 N 3.845780 -0.144540 1.401080 0
M  V30 33 C 4.775310 0.862120 1.583540 0
M  V30 34 H 4.964620 1.574030 0.793670 0
M  V30 35 C -1.888440 -1.246010 3.293410 0
M  V30 36 H -2.114540 -2.091260 3.956560 0
M  V30 37 H -1.608220 -0.393110 3.918530 0
M  V30 38 N -0.858560 -2.574030 1.399160 0
M  V30 39 H -1.755000 -2.916320 1.039670 0
M  V30 40 C -0.772460 -1.567610 2.353980 0
M  V30 41 C 0.297900 -2.560220 0.683470 0
M  V30 42 H 0.478180 -3.187640 -0.176530 0
M  V30 43 N 1.133930 -1.637470 1.130800 0
M  V30 44 C 0.473730 -1.017960 2.180210 0
M  V30 45 H 0.926290 -0.191780 2.708180 0
M  V30 46 Fe 2.532000 -0.361970 -0.384540 0 CHG=1 VAL=6
M  V30 47 O 0.970240 -0.592180 -1.941670 0
M  V30 48 C 0.231460 3.196380 0.720450 0
M  V30 49 C 1.301530 2.360150 0.991280 0
M  V30 50 N -0.449160 2.694440 -0.373920 0
M  V30 51 C 0.251440 1.602610 -0.699730 0
M  V30 52 N 1.299070 1.328700 0.082270 0
M  V30 53 H 2.076850 2.437910 1.741640 0
M  V30 54 H -1.291400 4.021920 -1.040780 0
M  V30 55 C -0.181990 4.483310 1.369690 0
M  V30 56 H 0.522380 4.695640 2.182000 0
M  V30 57 H -1.170940 4.382170 1.839530 0
M  V30 58 C -1.468290 5.880600 -0.425640 0
M  V30 59 O -2.106160 6.911620 -0.421160 0
M  V30 60 O -1.846910 4.843280 -1.193810 0
M  V30 61 C -0.199000 5.707090 0.413490 0
M  V30 62 H 0.663190 5.641950 -0.263200 0
M  V30 63 O -3.345380 -2.351210 -0.013280 0
M  V30 64 C -3.596720 -1.126950 0.091740 0
M  V30 65 O -4.332530 -0.578260 0.968340 0 CHG=-1 VAL=1
M  V30 66 C -2.927870 -0.174910 -0.963260 0
M  V30 67 H -3.338500 -0.457340 -1.939300 0
M  V30 68 C -1.443980 -0.504600 -0.895300 0
M  V30 69 H -1.069190 -0.383590 0.121340 0
M  V30 70 H -1.316800 -1.541530 -1.202240 0
M  V30 71 S -0.220840 0.403540 -1.943850 0 VAL=4
M  V30 72 N -3.202810 1.232070 -0.741820 0
M  V30 73 H -2.466740 1.831430 -0.374260 0
M  V30 74 C -4.452250 1.727880 -0.904160 0
M  V30 75 O -5.382460 1.031880 -1.341680 0
M  V30 76 C -4.652950 3.175980 -0.510680 0
M  V30 77 H -5.586660 3.531910 -0.949780 0
M  V30 78 H -3.825300 3.819070 -0.824350 0
M  V30 79 H 5.250000 -6.114570 -1.366570 0
M  V30 80 H -9.459140 -4.433080 0.600590 0
M  V30 81 H 6.045770 1.987080 4.448190 0
M  V30 82 H -2.804740 -0.985060 2.750590 0
M  V30 83 H -0.102300 6.631020 0.988570 0
M  V30 84 H -4.736710 3.237830 0.581850 0
M  V30 85 Br 4.226450 0.896840 -1.916570 0
M  V30 END ATOM
M  V30 BEGIN BOND
M  V30 1 1 5 4
M  V30 2 1 8 7
M  V30 3 1 4 7
M  V30 4 1 4 6
M  V30 5 2 7 9
M  V30 6 2 71 47
M  V30 7 1 71 68
M  V30 8 1 71 51
M  V30 9 1 67 66
M  V30 10 1 85 46
M  V30 11 1 3 1
M  V30 12 1 79 1
M  V30 13 2 75 74
M  V30 14 1 6 1
M  V30 15 2 6 10
M  V30 16 1 70 68
M  V30 17 1 60 54
M  V30 18 1 60 58
M  V30 19 1 1 2
M  V30 20 1 9 10
M  V30 21 1 22 21
M  V30 22 1 66 68
M  V30 23 1 66 72
M  V30 24 1 66 64
M  V30 25 1 77 76
M  V30 26 1 74 72
M  V30 27 1 74 76
M  V30 28 1 68 69
M  V30 29 1 16 15
M  V30 30 1 78 76
M  V30 31 1 72 73
M  V30 32 2 51 50
M  V30 33 1 51 52
M  V30 34 1 76 84
M  V30 35 1 23 21
M  V30 36 2 58 59
M  V30 37 1 58 61
M  V30 38 1 21 17
M  V30 39 1 10 11
M  V30 40 1 46 52
M  V30 41 1 50 48
M  V30 42 1 62 61
M  V30 43 1 42 41
M  V30 44 2 63 64
M  V30 45 1 15 17
M  V30 46 1 15 12
M  V30 47 1 52 49
M  V30 48 1 64 65
M  V30 49 1 17 18
M  V30 50 1 61 83
M  V30 51 1 61 55
M  V30 52 1 80 12
M  V30 53 1 13 12
M  V30 54 2 41 43
M  V30 55 1 41 38
M  V30 56 2 48 49
M  V30 57 1 48 55
M  V30 58 1 34 33
M  V30 59 1 12 14
M  V30 60 1 49 53
M  V30 61 1 39 38
M  V30 62 1 43 44
M  V30 63 1 18 19
M  V30 64 1 18 20
M  V30 65 1 55 57
M  V30 66 1 55 56
M  V30 67 1 38 40
M  V30 68 1 32 33
M  V30 69 2 32 30
M  V30 70 2 33 29
M  V30 71 2 44 40
M  V30 72 1 44 45
M  V30 73 1 40 35
M  V30 74 1 30 31
M  V30 75 1 30 27
M  V30 76 1 82 35
M  V30 77 1 29 27
M  V30 78 1 29 24
M  V30 79 1 26 24
M  V30 80 1 35 37
M  V30 81 1 35 36
M  V30 82 1 27 28
M  V30 83 1 24 25
M  V30 84 1 24 81
M  V30 85 9 9 46
M  V30 86 9 32 46
M  V30 87 9 43 46
M  V30 88 9 47 46
M  V30 END BOND
M  V30 END CTAB
M  END
