
     RDKit          3D

  0  0  0  0  0  0  0  0  0  0999 V3000
M  V30 BEGIN CTAB
M  V30 COUNTS 85 87 0 0 0
M  V30 BEGIN ATOM
M  V30 1 C -0.522060 5.593350 2.338580 0
M  V30 2 H -0.376690 5.039980 3.270470 0
M  V30 3 H 0.442560 6.042350 2.067280 0
M  V30 4 N -1.280330 5.074410 -0.023560 0
M  V30 5 H -1.148090 6.005980 -0.389300 0
M  V30 6 C -1.021850 4.667660 1.279910 0
M  V30 7 C -1.696070 3.991740 -0.736130 0
M  V30 8 H -1.934520 3.971340 -1.789210 0
M  V30 9 N -1.728130 2.924630 0.037300 0
M  V30 10 C -1.309730 3.325880 1.288020 0
M  V30 11 H -1.214830 2.612260 2.092720 0
M  V30 12 C 7.393020 3.405850 -0.850810 0
M  V30 13 H 6.445050 3.899580 -1.097850 0
M  V30 14 H 7.848350 3.907350 0.012780 0
M  V30 15 N 7.199450 1.986510 -0.605550 0
M  V30 16 H 7.704880 1.319240 -1.169510 0
M  V30 17 C 6.350940 1.475450 0.311730 0 RAD=2 VAL=3
M  V30 18 N 5.706990 2.276970 1.173300 0
M  V30 19 H 4.877340 1.858380 1.629930 0
M  V30 20 H 5.781920 3.279380 1.106170 0
M  V30 21 N 6.186910 0.153250 0.403880 0
M  V30 22 H 6.214980 -0.407950 -0.459020 0
M  V30 23 H 5.360690 -0.100350 0.979480 0
M  V30 24 C -7.785160 -0.023450 -0.909840 0
M  V30 25 H -8.439350 0.778120 -1.277010 0
M  V30 26 H -7.740180 -0.794750 -1.683530 0
M  V30 27 N -6.142430 1.453530 0.330850 0
M  V30 28 H -6.829980 1.928510 0.897670 0
M  V30 29 C -6.407790 0.470470 -0.614750 0
M  V30 30 C -4.798880 1.676670 0.347980 0
M  V30 31 H -4.302960 2.393130 0.985920 0
M  V30 32 N -4.194640 0.893080 -0.519830 0
M  V30 33 C -5.177790 0.142220 -1.127860 0
M  V30 34 H -4.920340 -0.572640 -1.895150 0
M  V30 35 C -2.422650 -2.774400 3.473950 0
M  V30 36 H -2.365360 -2.489820 4.533160 0
M  V30 37 H -3.455390 -3.069030 3.261600 0
M  V30 38 N -0.650550 -1.425520 2.322440 0
M  V30 39 H 0.086000 -2.136690 2.472810 0
M  V30 40 C -1.990260 -1.665200 2.570820 0
M  V30 41 C -0.566100 -0.402130 1.446360 0
M  V30 42 H 0.359500 0.033700 1.112480 0
M  V30 43 N -1.770840 0.048940 1.113090 0
M  V30 44 C -2.668290 -0.729720 1.828820 0
M  V30 45 H -3.733710 -0.586650 1.729230 0
M  V30 46 Fe -2.025220 0.942390 -0.962840 0 CHG=2 VAL=6
M  V30 47 C -1.790770 -3.319850 -0.754620 0
M  V30 48 C -2.709070 -2.304110 -0.843780 0
M  V30 49 N -0.789130 -2.975420 -1.652490 0
M  V30 50 C -1.119350 -1.773980 -2.192980 0
M  V30 51 N -2.276030 -1.327610 -1.725810 0
M  V30 52 H -3.634330 -2.190110 -0.301110 0
M  V30 53 H -0.495720 -1.241250 -2.892860 0
M  V30 54 H 0.164760 -3.334830 -1.550740 0
M  V30 55 C -1.753050 -4.556830 0.099130 0
M  V30 56 H -2.387240 -5.339080 -0.342910 0
M  V30 57 H -2.201310 -4.304760 1.065850 0
M  V30 58 C 0.636110 -4.089080 0.883500 0
M  V30 59 O 0.570060 -3.817450 2.105830 0 CHG=-1 VAL=1
M  V30 60 O 1.388140 -3.537410 0.012160 0
M  V30 61 C -0.343600 -5.148320 0.337440 0
M  V30 62 H 0.049940 -5.563950 -0.597120 0
M  V30 63 O 1.946480 1.392620 0.811650 0
M  V30 64 C 2.874110 0.549160 0.747870 0
M  V30 65 O 3.789500 0.406050 1.615090 0 CHG=-1 VAL=1
M  V30 66 C 2.949340 -0.321450 -0.542500 0
M  V30 67 H 3.676130 0.174940 -1.196120 0
M  V30 68 C 1.591350 -0.431400 -1.253280 0
M  V30 69 H 1.767290 -0.848160 -2.252310 0
M  V30 70 H 0.971320 -1.145240 -0.707290 0
M  V30 71 S 0.696370 1.143640 -1.453160 0
M  V30 72 N 3.433710 -1.672870 -0.303340 0
M  V30 73 H 2.736530 -2.331750 0.082680 0
M  V30 74 C 4.505330 -2.208340 -0.924830 0
M  V30 75 O 5.342530 -1.543640 -1.569100 0
M  V30 76 C 4.669180 -3.707950 -0.749640 0
M  V30 77 H 5.082780 -4.120560 -1.673590 0
M  V30 78 H 3.724650 -4.198760 -0.499930 0
M  V30 79 H -1.224940 6.412810 2.541210 0
M  V30 80 H 8.065550 3.520920 -1.702150 0
M  V30 81 H -8.263160 -0.465170 -0.025540 0
M  V30 82 H -1.766340 -3.640230 3.328670 0
M  V30 83 H -0.435220 -5.963100 1.062830 0
M  V30 84 H 5.391960 -3.898650 0.052880 0
M  V30 85 F -2.205390 1.848990 -2.541610 0
M  V30 END ATOM
M  V30 BEGIN BOND
M  V30 1 1 53 50
M  V30 2 1 85 46
M  V30 3 1 69 68
M  V30 4 2 50 51
M  V30 5 1 50 49
M  V30 6 1 34 33
M  V30 7 1 8 7
M  V30 8 1 51 48
M  V30 9 1 80 12
M  V30 10 1 26 24
M  V30 11 1 77 76
M  V30 12 1 49 54
M  V30 13 1 49 47
M  V30 14 2 75 74
M  V30 15 1 71 68
M  V30 16 1 71 46
M  V30 17 1 25 24
M  V30 18 1 68 70
M  V30 19 1 68 66
M  V30 20 1 67 66
M  V30 21 1 16 15
M  V30 22 2 33 29
M  V30 23 1 33 32
M  V30 24 1 13 12
M  V30 25 1 74 76
M  V30 26 1 74 72
M  V30 27 1 24 29
M  V30 28 1 24 81
M  V30 29 1 12 15
M  V30 30 1 12 14
M  V30 31 2 48 47
M  V30 32 1 48 52
M  V30 33 1 47 55
M  V30 34 1 76 78
M  V30 35 1 76 84
M  V30 36 1 7 4
M  V30 37 2 7 9
M  V30 38 1 29 27
M  V30 39 1 15 17
M  V30 40 1 62 61
M  V30 41 1 66 72
M  V30 42 1 66 64
M  V30 43 2 32 30
M  V30 44 1 22 21
M  V30 45 1 5 4
M  V30 46 1 56 55
M  V30 47 1 72 73
M  V30 48 1 4 6
M  V30 49 2 60 58
M  V30 50 1 9 10
M  V30 51 1 55 61
M  V30 52 1 55 57
M  V30 53 1 17 21
M  V30 54 1 17 18
M  V30 55 1 27 30
M  V30 56 1 27 28
M  V30 57 1 61 58
M  V30 58 1 61 83
M  V30 59 1 30 31
M  V30 60 1 21 23
M  V30 61 2 64 63
M  V30 62 1 64 65
M  V30 63 1 58 59
M  V30 64 1 20 18
M  V30 65 1 42 41
M  V30 66 2 43 41
M  V30 67 1 43 44
M  V30 68 1 18 19
M  V30 69 2 6 10
M  V30 70 1 6 1
M  V30 71 1 10 11
M  V30 72 1 41 38
M  V30 73 1 45 44
M  V30 74 2 44 40
M  V30 75 1 3 1
M  V30 76 1 38 39
M  V30 77 1 38 40
M  V30 78 1 1 79
M  V30 79 1 1 2
M  V30 80 1 40 35
M  V30 81 1 37 35
M  V30 82 1 82 35
M  V30 83 1 35 36
M  V30 84 9 9 46
M  V30 85 9 32 46
M  V30 86 9 43 46
M  V30 87 9 51 46
M  V30 END BOND
M  V30 END CTAB
M  END
