
     RDKit          3D

  0  0  0  0  0  0  0  0  0  0999 V3000
M  V30 BEGIN CTAB
M  V30 COUNTS 87 88 0 0 0
M  V30 BEGIN ATOM
M  V30 1 C -1.471900 -4.914800 0.921100 0
M  V30 2 H -1.602600 -4.588300 1.958500 0
M  V30 3 H -2.444900 -4.850000 0.414000 0
M  V30 4 N -0.004000 -4.289700 -1.040000 0
M  V30 5 H -0.330600 -5.015100 -1.661300 0
M  V30 6 C -0.451100 -4.057700 0.251700 0
M  V30 7 C 0.879600 -3.312200 -1.366200 0
M  V30 8 H 1.367700 -3.217200 -2.324400 0
M  V30 9 N 1.037400 -2.477500 -0.358200 0
M  V30 10 C 0.213100 -2.927600 0.652400 0
M  V30 11 H 0.119000 -2.380900 1.578700 0
M  V30 12 C -5.741000 -4.466300 1.756600 0
M  V30 13 H -4.928300 -4.992800 1.244800 0
M  V30 14 H -5.445300 -4.275700 2.798200 0
M  V30 15 N -6.083300 -3.250000 1.037200 0
M  V30 16 H -7.055800 -2.978000 1.030700 0
M  V30 17 C -5.184300 -2.254800 0.788700 0
M  V30 18 N -3.909900 -2.381600 1.127300 0
M  V30 19 H -3.241300 -1.599900 0.814000 0
M  V30 20 H -3.599200 -3.157800 1.688200 0
M  V30 21 N -5.615800 -1.139700 0.190900 0 CHG=1 VAL=4
M  V30 22 H -6.493800 -1.141300 -0.307300 0
M  V30 23 H -4.968000 -0.397900 -0.112400 0
M  V30 24 C 7.299200 -0.762400 1.327700 0
M  V30 25 H 7.886300 -1.467400 0.725400 0
M  V30 26 H 7.561300 0.248400 1.003700 0
M  V30 27 N 5.202200 -2.169400 1.490700 0
M  V30 28 H 5.665800 -3.017800 1.781600 0
M  V30 29 C 5.833900 -0.981500 1.152200 0
M  V30 30 C 3.890900 -2.065500 1.151200 0
M  V30 31 H 3.173000 -2.866000 1.244300 0
M  V30 32 N 3.634000 -0.868300 0.658300 0
M  V30 33 C 4.836900 -0.187100 0.648900 0
M  V30 34 H 4.899500 0.808900 0.238400 0
M  V30 35 C 0.073300 1.301100 4.418900 0
M  V30 36 H -0.931700 1.074100 4.797200 0
M  V30 37 H 0.790100 0.689800 4.975300 0
M  V30 38 N -0.556500 1.694700 2.004800 0
M  V30 39 H -1.182100 2.509500 2.094900 0
M  V30 40 C 0.190800 1.026000 2.956300 0
M  V30 41 C -0.206200 1.225500 0.793200 0
M  V30 42 H -0.605800 1.635100 -0.113300 0
M  V30 43 N 0.719800 0.284600 0.889000 0
M  V30 44 C 0.976500 0.150700 2.243800 0
M  V30 45 H 1.728500 -0.536700 2.600500 0
M  V30 46 Fe 1.953110 -0.437300 -0.756310 0 CHG=1 RAD=2 VAL=5
M  V30 47 C 1.821500 3.657900 0.236300 0
M  V30 48 C 2.630700 2.560000 0.395300 0
M  V30 49 N 1.441900 3.631900 -1.098600 0
M  V30 50 C 1.981300 2.520500 -1.659000 0
M  V30 51 N 2.708700 1.837600 -0.785100 0
M  V30 52 H 3.100300 2.198000 1.298300 0
M  V30 53 H 1.809300 2.222500 -2.682200 0
M  V30 54 H 0.584400 4.096500 -1.420500 0
M  V30 55 C 1.316000 4.684600 1.214200 0
M  V30 56 H 2.101800 5.422700 1.428300 0
M  V30 57 H 1.104800 4.172200 2.160600 0
M  V30 58 C -1.113800 4.470100 0.433000 0
M  V30 59 O -1.807300 4.043100 1.390800 0 CHG=-1 VAL=1
M  V30 60 O -1.229600 4.134500 -0.790900 0
M  V30 61 C 0.042000 5.438700 0.763800 0
M  V30 62 H 0.265500 6.057500 -0.112600 0
M  V30 63 O -1.662100 -1.397000 -1.333600 0
M  V30 64 C -2.265600 -0.373100 -0.934000 0
M  V30 65 O -2.833800 -0.241300 0.192300 0 CHG=-1 VAL=1
M  V30 66 C -2.399200 0.789900 -1.957000 0 CFG=2
M  V30 67 H -3.075500 0.379000 -2.716200 0
M  V30 68 C -1.049600 1.152600 -2.622700 0
M  V30 69 H -1.238900 1.512900 -3.638300 0
M  V30 70 H -0.589700 1.976900 -2.073100 0
M  V30 71 S 0.139000 -0.238200 -2.719100 0 RAD=2 VAL=1
M  V30 72 N -2.996800 1.991000 -1.412200 0
M  V30 73 H -2.385300 2.778200 -1.141400 0
M  V30 74 C -4.296000 2.044300 -1.049600 0
M  V30 75 O -5.098700 1.118500 -1.259700 0
M  V30 76 C -4.705800 3.341000 -0.373000 0
M  V30 77 H -4.680900 4.168200 -1.092300 0
M  V30 78 H -4.002800 3.589100 0.431200 0
M  V30 79 H -1.180500 -5.973000 0.947300 0
M  V30 80 H -6.612800 -5.123200 1.759800 0
M  V30 81 H 7.611800 -0.871500 2.374500 0
M  V30 82 H 0.278200 2.354300 4.649400 0
M  V30 83 H -0.268800 6.099100 1.579000 0
M  V30 84 H -5.720500 3.234300 0.015500 0
M  V30 85 N 3.100000 -1.250100 -2.224400 0
M  V30 86 N 3.960700 -2.068400 -2.015400 0 CHG=1 VAL=4
M  V30 87 N 4.787000 -2.861900 -1.824600 0 CHG=-1 VAL=2
M  V30 END ATOM
M  V30 BEGIN BOND
M  V30 1 1 69 68
M  V30 2 1 71 68
M  V30 3 1 66 67 CFG=3
M  V30 4 1 53 50
M  V30 5 1 68 70
M  V30 6 1 68 66
M  V30 7 1 8 7
M  V30 8 2 85 86
M  V30 9 2 86 87
M  V30 10 1 66 72
M  V30 11 1 66 64
M  V30 12 1 5 4
M  V30 13 1 50 49
M  V30 14 2 50 51
M  V30 15 1 54 49
M  V30 16 1 72 73
M  V30 17 1 72 74
M  V30 18 1 7 4
M  V30 19 2 7 9
M  V30 20 2 63 64
M  V30 21 2 75 74
M  V30 22 1 49 47
M  V30 23 1 77 76
M  V30 24 1 74 76
M  V30 25 1 4 6
M  V30 26 1 64 65
M  V30 27 2 60 58
M  V30 28 1 51 48
M  V30 29 1 76 84
M  V30 30 1 76 78
M  V30 31 1 9 10
M  V30 32 1 22 21
M  V30 33 1 42 41
M  V30 34 1 62 61
M  V30 35 1 23 21
M  V30 36 2 21 17
M  V30 37 2 47 48
M  V30 38 1 47 55
M  V30 39 1 34 33
M  V30 40 2 6 10
M  V30 41 1 6 1
M  V30 42 1 48 52
M  V30 43 1 3 1
M  V30 44 1 58 61
M  V30 45 1 58 59
M  V30 46 1 33 32
M  V30 47 2 33 29
M  V30 48 1 10 11
M  V30 49 2 32 30
M  V30 50 1 25 24
M  V30 51 1 61 55
M  V30 52 1 61 83
M  V30 53 1 17 15
M  V30 54 1 17 18
M  V30 55 2 41 43
M  V30 56 1 41 38
M  V30 57 1 19 18
M  V30 58 1 43 44
M  V30 59 1 1 79
M  V30 60 1 1 2
M  V30 61 1 26 24
M  V30 62 1 16 15
M  V30 63 1 15 12
M  V30 64 1 18 20
M  V30 65 1 30 31
M  V30 66 1 30 27
M  V30 67 1 29 24
M  V30 68 1 29 27
M  V30 69 1 55 56
M  V30 70 1 55 57
M  V30 71 1 13 12
M  V30 72 1 24 81
M  V30 73 1 27 28
M  V30 74 1 12 80
M  V30 75 1 12 14
M  V30 76 1 38 39
M  V30 77 1 38 40
M  V30 78 1 44 45
M  V30 79 2 44 40
M  V30 80 1 40 35
M  V30 81 1 35 82
M  V30 82 1 35 36
M  V30 83 1 35 37
M  V30 84 1 46 85
M  V30 85 9 9 46
M  V30 86 9 32 46
M  V30 87 9 43 46
M  V30 88 9 51 46
M  V30 END BOND
M  V30 END CTAB
M  END
