
     RDKit          3D

  0  0  0  0  0  0  0  0  0  0999 V3000
M  V30 BEGIN CTAB
M  V30 COUNTS 85 88 0 0 0
M  V30 BEGIN ATOM
M  V30 1 C -4.546500 5.725500 1.375800 0
M  V30 2 H -4.341400 5.507200 2.427700 0
M  V30 3 H -4.020800 6.655200 1.120800 0
M  V30 4 N -4.242800 4.558500 -0.853000 0
M  V30 5 H -4.656100 5.286300 -1.417600 0
M  V30 6 C -4.102600 4.580100 0.527700 0
M  V30 7 C -3.744800 3.380400 -1.317700 0
M  V30 8 H -3.755300 3.044200 -2.343900 0
M  V30 9 N -3.286200 2.650600 -0.319100 0
M  V30 10 C -3.508100 3.380600 0.830800 0
M  V30 11 H -3.237400 2.991500 1.801300 0
M  V30 12 C 8.060300 3.955800 -0.708300 0
M  V30 13 H 7.220000 4.577500 -0.379800 0
M  V30 14 H 8.859400 4.002800 0.044200 0
M  V30 15 N 7.617000 2.594500 -0.957800 0
M  V30 16 H 7.941400 2.120400 -1.787600 0
M  V30 17 C 6.902300 1.849900 -0.084500 0 RAD=2 VAL=3
M  V30 18 N 6.616400 2.311700 1.137300 0
M  V30 19 H 5.911300 1.774500 1.679100 0
M  V30 20 H 7.055600 3.135200 1.515700 0
M  V30 21 N 6.488400 0.628400 -0.431500 0
M  V30 22 H 6.187700 0.440900 -1.392000 0
M  V30 23 H 5.831700 0.218700 0.265300 0
M  V30 24 C -7.741200 -1.922200 -0.531900 0
M  V30 25 H -8.571500 -1.450700 0.010500 0
M  V30 26 H -7.906700 -1.758500 -1.600300 0
M  V30 27 N -5.925000 -1.417200 1.159700 0
M  V30 28 H -6.390100 -1.841600 1.949100 0
M  V30 29 C -6.418600 -1.353000 -0.137700 0
M  V30 30 C -4.705400 -0.807800 1.182600 0
M  V30 31 H -4.087300 -0.714700 2.063200 0
M  V30 32 N -4.395200 -0.365000 -0.017400 0
M  V30 33 C -5.448000 -0.692800 -0.848300 0
M  V30 34 H -5.398300 -0.410400 -1.889800 0
M  V30 35 C 0.759800 -1.243800 3.565000 0
M  V30 36 H 0.408900 -1.305100 4.603800 0
M  V30 37 H 0.852300 -2.260200 3.165200 0
M  V30 38 N 0.026100 0.964600 2.599600 0
M  V30 39 H 0.932200 1.407300 2.769300 0
M  V30 40 C -0.149100 -0.406200 2.724100 0
M  V30 41 C -0.877000 1.421300 1.693800 0
M  V30 42 H -0.903100 2.439000 1.334600 0
M  V30 43 N -1.655600 0.445100 1.253400 0
M  V30 44 C -1.213100 -0.701100 1.902000 0
M  V30 45 H -1.650300 -1.665900 1.691300 0
M  V30 46 Fe -2.612500 0.600300 -0.921900 0 CHG=2 VAL=6
M  V30 47 O -0.524400 1.237400 -1.615600 0
M  V30 48 C -0.861600 -3.378200 -0.671500 0
M  V30 49 C -1.989800 -2.611500 -0.873400 0
M  V30 50 N 0.204300 -2.553000 -0.992500 0
M  V30 51 C -0.310300 -1.347100 -1.312600 0 RAD=2 VAL=3
M  V30 52 N -1.630200 -1.341300 -1.267500 0
M  V30 53 H -3.030300 -2.870400 -0.741500 0
M  V30 54 H 1.187300 -2.788100 -0.698000 0
M  V30 55 C -0.678600 -4.769200 -0.118800 0
M  V30 56 H -1.190500 -5.492000 -0.768300 0
M  V30 57 H -1.175100 -4.814500 0.858500 0
M  V30 58 C 1.522900 -4.196400 1.019100 0
M  V30 59 O 1.253900 -4.231500 2.224700 0 CHG=-1 VAL=1
M  V30 60 O 2.288100 -3.354400 0.406800 0
M  V30 61 C 0.791100 -5.193900 0.082700 0
M  V30 62 H 1.306000 -5.255900 -0.882500 0
M  V30 63 O 2.775800 1.452700 2.042500 0 CHG=-1 VAL=1
M  V30 64 C 3.533000 0.762400 1.332700 0
M  V30 65 O 4.737200 0.447200 1.595000 0
M  V30 66 C 2.999800 0.281400 -0.075600 0
M  V30 67 H 3.405700 0.979100 -0.817400 0
M  V30 68 C 1.480300 0.339100 -0.058200 0
M  V30 69 H 1.074600 -0.407900 0.624500 0
M  V30 70 H 1.161100 1.326800 0.264900 0
M  V30 71 S 0.589900 0.174100 -1.678500 0 VAL=4
M  V30 72 N 3.474700 -1.037800 -0.449500 0
M  V30 73 H 3.152500 -1.838800 0.113500 0
M  V30 74 C 4.247600 -1.272500 -1.534500 0
M  V30 75 O 4.690500 -0.369300 -2.269100 0
M  V30 76 C 4.581800 -2.729900 -1.794500 0
M  V30 77 H 4.467400 -2.923200 -2.865200 0
M  V30 78 H 3.958200 -3.412000 -1.211700 0
M  V30 79 H -5.623600 5.916500 1.279700 0
M  V30 80 H 8.444300 4.373000 -1.640900 0
M  V30 81 H -7.795800 -3.003400 -0.348400 0
M  V30 82 H 1.762200 -0.800600 3.578400 0
M  V30 83 H 0.796200 -6.186600 0.543800 0
M  V30 84 H 5.635700 -2.897900 -1.542500 0
M  V30 85 F -3.516300 0.852400 -2.518900 0
M  V30 END ATOM
M  V30 BEGIN BOND
M  V30 1 1 1 2
M  V30 2 1 3 1
M  V30 3 1 4 6
M  V30 4 1 5 4
M  V30 5 2 6 10
M  V30 6 1 6 1
M  V30 7 1 7 4
M  V30 8 2 7 9
M  V30 9 1 8 7
M  V30 10 1 9 10
M  V30 11 1 10 11
M  V30 12 1 12 13
M  V30 13 1 12 14
M  V30 14 1 15 12
M  V30 15 1 15 17
M  V30 16 1 16 15
M  V30 17 1 17 18
M  V30 18 1 18 20
M  V30 19 1 18 19
M  V30 20 1 21 17
M  V30 21 1 21 23
M  V30 22 1 22 21
M  V30 23 1 24 81
M  V30 24 1 24 29
M  V30 25 1 24 25
M  V30 26 1 26 24
M  V30 27 1 27 30
M  V30 28 1 27 28
M  V30 29 1 29 27
M  V30 30 1 30 31
M  V30 31 2 32 30
M  V30 32 2 33 29
M  V30 33 1 33 32
M  V30 34 1 34 33
M  V30 35 1 35 82
M  V30 36 1 35 36
M  V30 37 1 37 35
M  V30 38 1 38 40
M  V30 39 1 38 39
M  V30 40 1 40 35
M  V30 41 1 41 38
M  V30 42 1 42 41
M  V30 43 2 43 41
M  V30 44 1 43 44
M  V30 45 2 44 40
M  V30 46 1 45 44
M  V30 47 1 48 55
M  V30 48 1 49 53
M  V30 49 2 49 48
M  V30 50 1 50 54
M  V30 51 1 50 48
M  V30 52 1 51 71
M  V30 53 1 51 52
M  V30 54 1 51 50
M  V30 55 1 52 46
M  V30 56 1 52 49
M  V30 57 1 55 61
M  V30 58 1 55 57
M  V30 59 1 56 55
M  V30 60 1 58 59
M  V30 61 2 60 58
M  V30 62 1 61 83
M  V30 63 1 61 58
M  V30 64 1 62 61
M  V30 65 2 64 65
M  V30 66 1 64 63
M  V30 67 1 66 67
M  V30 68 1 66 68
M  V30 69 1 66 64
M  V30 70 1 68 70
M  V30 71 1 68 69
M  V30 72 2 71 47
M  V30 73 1 71 68
M  V30 74 1 72 66
M  V30 75 1 72 73
M  V30 76 1 74 72
M  V30 77 2 75 74
M  V30 78 1 76 84
M  V30 79 1 76 74
M  V30 80 1 76 78
M  V30 81 1 77 76
M  V30 82 1 79 1
M  V30 83 1 80 12
M  V30 84 1 85 46
M  V30 85 9 9 46
M  V30 86 9 32 46
M  V30 87 9 43 46
M  V30 88 9 47 46
M  V30 END BOND
M  V30 END CTAB
M  END
